/*---------------------------------------------------------------------------*\
| =========                 |                                                 |
| \\      /  F ield         | OpenFOAM: The Open Source CFD Toolbox           |
|  \\    /   O peration     | Version:  2012                                  |
|   \\  /    A nd           | Website:  www.openfoam.com                      |
|    \\/     M anipulation  |                                                 |
\*---------------------------------------------------------------------------*/
Build  : _269d0ffd5c-20210619 OPENFOAM=2012 patch=210618
Arch   : "LSB;label=32;scalar=64"
Exec   : interTwoPhaseCentralFoam
Date   : Dec 21 2021
Time   : 12:18:35
Host   : friday
PID    : 48369
I/O    : uncollated
Case   : /home/aleksandr/OpenFOAM/aleksandr-v2012/hybridCentralSolvers/Sources/interTwoPhaseCentralFoam/tutorial/damBreak/damBreak
nProcs : 1
trapFpe: Floating point exception trapping enabled (FOAM_SIGFPE).
fileModificationChecking : Monitoring run-time modified files using timeStampMaster (fileModificationSkew 5, maxFileModificationPolls 20)
allowSystemOperations : Allowing user-supplied system call operations

// * * * * * * * * * * * * * * * * * * * * * * * * * * * * * * * * * * * * * //
Create time

Create mesh for time = 0


PIMPLE: no residual control data found. Calculations will employ 3 corrector loops

Selecting surfaceTensionModel constant

Constructor is working


Starting time loop


Reading g

Reading hRef
Calculating field g.h

 C1 1458.69 C2 331.198
Courant Number mean: 0 max: 0
deltaT = 1.20048e-05
Time = 1.20048e-05

diagonal:  Solving for rho1, Initial residual = 0, Final residual = 0, No Iterations 0
diagonal:  Solving for rho2, Initial residual = 0, Final residual = 0, No Iterations 0
PIMPLE: iteration 1
MULES: Solving for volumeFraction1
Phase-1 volume fraction = 0.130194  Min(volumeFraction1) = 0  Max(volumeFraction1) = 1
 max: rho1 1000.05 min: 1000.05
 max: rho2 1.29322 min: 1.29322
DILUPBiCGStab:  Solving for T, Initial residual = 1, Final residual = 2.37155e-17, No Iterations 1
 C1 1458.69 C2 331.198
DILUPBiCGStab:  Solving for p_rgh, Initial residual = 1, Final residual = 6.00612e-10, No Iterations 7
max/min kappa: 0/0
max/min source: 1.5833e-05/1.4402e-09
DICPCG:  Solving for pcorr, Initial residual = 1, Final residual = 6.46558e-10, No Iterations 86
PIMPLE: iteration 2
MULES: Solving for volumeFraction1
Phase-1 volume fraction = 0.130194  Min(volumeFraction1) = 0  Max(volumeFraction1) = 1
 max: rho1 1000.05 min: 1000.05
 max: rho2 1.29388 min: 1.26582
DILUPBiCGStab:  Solving for T, Initial residual = 1, Final residual = 3.31196e-14, No Iterations 1
 C1 1458.69 C2 331.198
DILUPBiCGStab:  Solving for p_rgh, Initial residual = 0.00615656, Final residual = 7.60365e-11, No Iterations 7
max/min kappa: 7.50055e-05/0
max/min source: 1.40254e-06/-1.23803e-08
DICPCG:  Solving for pcorr, Initial residual = 1, Final residual = 8.41636e-10, No Iterations 85
PIMPLE: iteration 3
MULES: Solving for volumeFraction1
Phase-1 volume fraction = 0.130194  Min(volumeFraction1) = -1.40293e-25  Max(volumeFraction1) = 1
 max: rho1 1000.05 min: 1000.05
 max: rho2 1.29532 min: 1.2932
DILUPBiCGStab:  Solving for T, Initial residual = 0.590632, Final residual = 3.08801e-15, No Iterations 1
 C1 1458.7 C2 331.201
DILUPBiCGStab:  Solving for p_rgh, Initial residual = 0.000494335, Final residual = 9.67663e-10, No Iterations 3
max/min kappa: 6.0023e-05/0
max/min source: 3.54252e-08/-1.17921e-06
DICPCG:  Solving for pcorr, Initial residual = 1, Final residual = 7.5045e-10, No Iterations 85
ExecutionTime = 0.08 s  ClockTime = 0 s

Courant Number mean: 5.68818e-07 max: 1.13249e-05
deltaT = 1.44127e-05
Time = 2.64175e-05

diagonal:  Solving for rho1, Initial residual = 0, Final residual = 0, No Iterations 0
diagonal:  Solving for rho2, Initial residual = 0, Final residual = 0, No Iterations 0
PIMPLE: iteration 1
MULES: Solving for volumeFraction1
Phase-1 volume fraction = 0.130194  Min(volumeFraction1) = -2.53315e-32  Max(volumeFraction1) = 1
 max: rho1 1000.06 min: 1000.04
 max: rho2 1.29532 min: 1.29318
DILUPBiCGStab:  Solving for T, Initial residual = 0.113422, Final residual = 5.92744e-16, No Iterations 1
 C1 1458.73 C2 331.206
DILUPBiCGStab:  Solving for p_rgh, Initial residual = 0.000594292, Final residual = 9.69758e-10, No Iterations 5
max/min kappa: 5.4597e-05/0
max/min source: 2.32148e-08/-2.27993e-10
DICPCG:  Solving for pcorr, Initial residual = 1, Final residual = 6.59795e-10, No Iterations 85
PIMPLE: iteration 2
MULES: Solving for volumeFraction1
Phase-1 volume fraction = 0.130194  Min(volumeFraction1) = -1.39885e-40  Max(volumeFraction1) = 1
 max: rho1 1000.05 min: 1000.05
 max: rho2 1.29775 min: 1.29316
DILUPBiCGStab:  Solving for T, Initial residual = 0.037337, Final residual = 6.08514e-16, No Iterations 1
 C1 1458.71 C2 331.202
DILUPBiCGStab:  Solving for p_rgh, Initial residual = 0.000402347, Final residual = 8.41732e-10, No Iterations 3
max/min kappa: 0.000133416/0
max/min source: 6.51125e-09/-5.4764e-11
DICPCG:  Solving for pcorr, Initial residual = 1, Final residual = 6.65501e-10, No Iterations 85
PIMPLE: iteration 3
MULES: Solving for volumeFraction1
Phase-1 volume fraction = 0.130194  Min(volumeFraction1) = -4.54784e-35  Max(volumeFraction1) = 1
 max: rho1 1000.05 min: 1000.05
 max: rho2 1.29775 min: 1.29317
DILUPBiCGStab:  Solving for T, Initial residual = 0.00132364, Final residual = 3.5291e-16, No Iterations 1
 C1 1458.71 C2 331.201
DILUPBiCGStab:  Solving for p_rgh, Initial residual = 0.00011121, Final residual = 4.41933e-10, No Iterations 3
max/min kappa: 0.000113039/0
max/min source: 4.39827e-11/-2.52775e-08
DICPCG:  Solving for pcorr, Initial residual = 1, Final residual = 6.38291e-10, No Iterations 85
ExecutionTime = 0.14 s  ClockTime = 0 s

Courant Number mean: 1.49558e-06 max: 3.01053e-05
deltaT = 1.72852e-05
Time = 4.37027e-05

diagonal:  Solving for rho1, Initial residual = 0, Final residual = 0, No Iterations 0
diagonal:  Solving for rho2, Initial residual = 0, Final residual = 0, No Iterations 0
PIMPLE: iteration 1
MULES: Solving for volumeFraction1
Phase-1 volume fraction = 0.130194  Min(volumeFraction1) = -9.40128e-32  Max(volumeFraction1) = 1
 max: rho1 1000.06 min: 1000.03
 max: rho2 1.29775 min: 1.29315
DILUPBiCGStab:  Solving for T, Initial residual = 0.00156248, Final residual = 3.87725e-16, No Iterations 1
 C1 1458.71 C2 331.201
DILUPBiCGStab:  Solving for p_rgh, Initial residual = 0.000101271, Final residual = 7.3127e-10, No Iterations 6
max/min kappa: 9.05617e-05/0
max/min source: 4.21755e-08/-1.23281e-10
DICPCG:  Solving for pcorr, Initial residual = 1, Final residual = 6.29914e-10, No Iterations 85
PIMPLE: iteration 2
MULES: Solving for volumeFraction1
Phase-1 volume fraction = 0.130194  Min(volumeFraction1) = -4.82102e-32  Max(volumeFraction1) = 1
 max: rho1 1000.05 min: 1000.05
 max: rho2 1.30069 min: 1.29316
DILUPBiCGStab:  Solving for T, Initial residual = 0.000879429, Final residual = 2.74236e-16, No Iterations 1
 C1 1458.71 C2 331.201
DILUPBiCGStab:  Solving for p_rgh, Initial residual = 1.39686e-05, Final residual = 3.87427e-10, No Iterations 2
max/min kappa: 0.000147123/0
max/min source: 9.42424e-11/-5.09799e-09
DICPCG:  Solving for pcorr, Initial residual = 1, Final residual = 6.82132e-10, No Iterations 85
PIMPLE: iteration 3
MULES: Solving for volumeFraction1
Phase-1 volume fraction = 0.130194  Min(volumeFraction1) = -4.54784e-35  Max(volumeFraction1) = 1
 max: rho1 1000.05 min: 1000.05
 max: rho2 1.30069 min: 1.29315
DILUPBiCGStab:  Solving for T, Initial residual = 6.80291e-05, Final residual = 5.38955e-17, No Iterations 1
 C1 1458.71 C2 331.201
DILUPBiCGStab:  Solving for p_rgh, Initial residual = 2.91412e-06, Final residual = 3.53777e-10, No Iterations 2
max/min kappa: 0.000146321/0
max/min source: 7.32226e-12/-3.76743e-08
DICPCG:  Solving for pcorr, Initial residual = 1, Final residual = 6.61274e-10, No Iterations 85
ExecutionTime = 0.2 s  ClockTime = 0 s

Courant Number mean: 2.93663e-06 max: 5.97335e-05
deltaT = 2.07423e-05
Time = 6.4445e-05

diagonal:  Solving for rho1, Initial residual = 0, Final residual = 0, No Iterations 0
diagonal:  Solving for rho2, Initial residual = 0, Final residual = 0, No Iterations 0
PIMPLE: iteration 1
MULES: Solving for volumeFraction1
Phase-1 volume fraction = 0.130194  Min(volumeFraction1) = -4.54784e-35  Max(volumeFraction1) = 1
 max: rho1 1000.06 min: 1000.03
 max: rho2 1.30069 min: 1.29313
DILUPBiCGStab:  Solving for T, Initial residual = 0.00239334, Final residual = 2.30409e-15, No Iterations 1
 C1 1458.71 C2 331.202
DILUPBiCGStab:  Solving for p_rgh, Initial residual = 9.77013e-05, Final residual = 4.76641e-10, No Iterations 8
max/min kappa: 0.000122841/0
max/min source: 7.2517e-08/-2.7647e-10
DICPCG:  Solving for pcorr, Initial residual = 1, Final residual = 6.66973e-10, No Iterations 85
PIMPLE: iteration 2
MULES: Solving for volumeFraction1
Phase-1 volume fraction = 0.130194  Min(volumeFraction1) = -3.55708e-31  Max(volumeFraction1) = 1
 max: rho1 1000.05 min: 1000.05
 max: rho2 1.304 min: 1.29314
DILUPBiCGStab:  Solving for T, Initial residual = 0.000938851, Final residual = 1.46621e-15, No Iterations 1
 C1 1458.71 C2 331.201
DILUPBiCGStab:  Solving for p_rgh, Initial residual = 6.07877e-06, Final residual = 6.4427e-10, No Iterations 2
max/min kappa: 0.000179875/0
max/min source: 1.02451e-10/-2.75937e-09
DICPCG:  Solving for pcorr, Initial residual = 1, Final residual = 7.6683e-10, No Iterations 85
PIMPLE: iteration 3
MULES: Solving for volumeFraction1
Phase-1 volume fraction = 0.130194  Min(volumeFraction1) = -7.30397e-41  Max(volumeFraction1) = 1
 max: rho1 1000.05 min: 1000.05
 max: rho2 1.304 min: 1.29314
DILUPBiCGStab:  Solving for T, Initial residual = 1.88043e-05, Final residual = 2.8992e-16, No Iterations 1
 C1 1458.71 C2 331.201
DILUPBiCGStab:  Solving for p_rgh, Initial residual = 5.35279e-07, Final residual = 6.98143e-10, No Iterations 1
max/min kappa: 0.000178659/0
max/min source: 2.70815e-11/-3.86178e-08
DICPCG:  Solving for pcorr, Initial residual = 1, Final residual = 7.7882e-10, No Iterations 85
ExecutionTime = 0.26 s  ClockTime = 0 s

Courant Number mean: 5.10355e-06 max: 0.000104144
deltaT = 2.49011e-05
Time = 8.93462e-05

diagonal:  Solving for rho1, Initial residual = 0, Final residual = 0, No Iterations 0
diagonal:  Solving for rho2, Initial residual = 0, Final residual = 0, No Iterations 0
PIMPLE: iteration 1
MULES: Solving for volumeFraction1
Phase-1 volume fraction = 0.130194  Min(volumeFraction1) = -4.64877e-40  Max(volumeFraction1) = 1
 max: rho1 1000.07 min: 1000.04
 max: rho2 1.304 min: 1.29312
DILUPBiCGStab:  Solving for T, Initial residual = 0.00364807, Final residual = 4.58971e-15, No Iterations 1
 C1 1458.71 C2 331.202
DILUPBiCGStab:  Solving for p_rgh, Initial residual = 9.41512e-05, Final residual = 7.19286e-10, No Iterations 9
max/min kappa: 0.000150221/0
max/min source: 1.25586e-07/-6.14545e-10
DICPCG:  Solving for pcorr, Initial residual = 1, Final residual = 6.9246e-10, No Iterations 85
PIMPLE: iteration 2
MULES: Solving for volumeFraction1
Phase-1 volume fraction = 0.130194  Min(volumeFraction1) = -2.41701e-30  Max(volumeFraction1) = 1
 max: rho1 1000.05 min: 1000.05
 max: rho2 1.30731 min: 1.29313
DILUPBiCGStab:  Solving for T, Initial residual = 0.00112942, Final residual = 4.17096e-15, No Iterations 1
 C1 1458.71 C2 331.202
DILUPBiCGStab:  Solving for p_rgh, Initial residual = 6.48564e-06, Final residual = 8.50565e-10, No Iterations 2
max/min kappa: 0.0002044/0
max/min source: 2.14195e-08/-7.713e-10
DICPCG:  Solving for pcorr, Initial residual = 1, Final residual = 7.8508e-10, No Iterations 85
PIMPLE: iteration 3
MULES: Solving for volumeFraction1
Phase-1 volume fraction = 0.130194  Min(volumeFraction1) = -7.30396e-41  Max(volumeFraction1) = 1
 max: rho1 1000.05 min: 1000.05
 max: rho2 1.30731 min: 1.29313
DILUPBiCGStab:  Solving for T, Initial residual = 1.42618e-05, Final residual = 1.29359e-15, No Iterations 1
 C1 1458.71 C2 331.202
DILUPBiCGStab:  Solving for p_rgh, Initial residual = 4.34939e-07, Final residual = 3.28285e-10, No Iterations 2
max/min kappa: 0.000202779/0
max/min source: 1.41663e-11/-1.66302e-08
DICPCG:  Solving for pcorr, Initial residual = 1, Final residual = 7.82803e-10, No Iterations 85
ExecutionTime = 0.31 s  ClockTime = 0 s

Courant Number mean: 8.34739e-06 max: 0.000167984
deltaT = 2.98514e-05
Time = 0.000119198

diagonal:  Solving for rho1, Initial residual = 0, Final residual = 0, No Iterations 0
diagonal:  Solving for rho2, Initial residual = 0, Final residual = 0, No Iterations 0
PIMPLE: iteration 1
MULES: Solving for volumeFraction1
Phase-1 volume fraction = 0.130194  Min(volumeFraction1) = -7.30396e-41  Max(volumeFraction1) = 1
 max: rho1 1000.06 min: 1000.03
 max: rho2 1.30731 min: 1.29312
DILUPBiCGStab:  Solving for T, Initial residual = 0.00496811, Final residual = 5.63924e-15, No Iterations 1
 C1 1458.71 C2 331.202
DILUPBiCGStab:  Solving for p_rgh, Initial residual = 8.40508e-05, Final residual = 2.57759e-10, No Iterations 10
max/min kappa: 0.000170795/0
max/min source: 2.04199e-07/-1.22014e-09
DICPCG:  Solving for pcorr, Initial residual = 1, Final residual = 7.1469e-10, No Iterations 85
PIMPLE: iteration 2
MULES: Solving for volumeFraction1
Phase-1 volume fraction = 0.130194  Min(volumeFraction1) = -7.30396e-41  Max(volumeFraction1) = 1
 max: rho1 1000.05 min: 1000.05
 max: rho2 1.31001 min: 1.29313
DILUPBiCGStab:  Solving for T, Initial residual = 0.00152894, Final residual = 6.09904e-15, No Iterations 1
 C1 1458.71 C2 331.202
DILUPBiCGStab:  Solving for p_rgh, Initial residual = 8.11559e-06, Final residual = 6.00481e-10, No Iterations 2
max/min kappa: 0.000220756/0
max/min source: 7.30712e-08/-1.46841e-09
DICPCG:  Solving for pcorr, Initial residual = 1, Final residual = 7.9463e-10, No Iterations 85
PIMPLE: iteration 3
MULES: Solving for volumeFraction1
Phase-1 volume fraction = 0.130194  Min(volumeFraction1) = -7.30396e-41  Max(volumeFraction1) = 1
 max: rho1 1000.05 min: 1000.05
 max: rho2 1.31001 min: 1.29312
DILUPBiCGStab:  Solving for T, Initial residual = 2.55589e-05, Final residual = 2.8605e-15, No Iterations 1
 C1 1458.71 C2 331.202
DILUPBiCGStab:  Solving for p_rgh, Initial residual = 5.84455e-07, Final residual = 5.63456e-10, No Iterations 2
max/min kappa: 0.000218682/0
max/min source: 3.45405e-08/-1.49914e-09
DICPCG:  Solving for pcorr, Initial residual = 1, Final residual = 7.93771e-10, No Iterations 85
ExecutionTime = 0.37 s  ClockTime = 0 s

Courant Number mean: 1.30495e-05 max: 0.000256278
deltaT = 3.58e-05
Time = 0.000154998

diagonal:  Solving for rho1, Initial residual = 0, Final residual = 0, No Iterations 0
diagonal:  Solving for rho2, Initial residual = 0, Final residual = 0, No Iterations 0
PIMPLE: iteration 1
MULES: Solving for volumeFraction1
Phase-1 volume fraction = 0.130194  Min(volumeFraction1) = -7.30396e-41  Max(volumeFraction1) = 1
 max: rho1 1000.06 min: 1000.04
 max: rho2 1.31001 min: 1.29312
DILUPBiCGStab:  Solving for T, Initial residual = 0.00583715, Final residual = 7.58407e-15, No Iterations 1
 C1 1458.71 C2 331.202
DILUPBiCGStab:  Solving for p_rgh, Initial residual = 6.78598e-05, Final residual = 7.43617e-10, No Iterations 9
max/min kappa: 0.000184009/0
max/min source: 2.96594e-07/-2.20873e-09
DICPCG:  Solving for pcorr, Initial residual = 1, Final residual = 7.1848e-10, No Iterations 85
PIMPLE: iteration 2
MULES: Solving for volumeFraction1
Phase-1 volume fraction = 0.130194  Min(volumeFraction1) = -4.38554e-29  Max(volumeFraction1) = 1
 max: rho1 1000.05 min: 1000.05
 max: rho2 1.3114 min: 1.29312
DILUPBiCGStab:  Solving for T, Initial residual = 0.00239147, Final residual = 9.23092e-15, No Iterations 1
 C1 1458.71 C2 331.202
DILUPBiCGStab:  Solving for p_rgh, Initial residual = 9.46423e-06, Final residual = 7.82767e-10, No Iterations 2
max/min kappa: 0.000228366/0
max/min source: 1.44542e-07/-2.58301e-09
DICPCG:  Solving for pcorr, Initial residual = 1, Final residual = 8.05185e-10, No Iterations 85
PIMPLE: iteration 3
MULES: Solving for volumeFraction1
Phase-1 volume fraction = 0.130194  Min(volumeFraction1) = -7.30396e-41  Max(volumeFraction1) = 1
 max: rho1 1000.05 min: 1000.05
 max: rho2 1.3114 min: 1.29312
DILUPBiCGStab:  Solving for T, Initial residual = 4.10652e-05, Final residual = 6.49828e-15, No Iterations 1
 C1 1458.71 C2 331.202
DILUPBiCGStab:  Solving for p_rgh, Initial residual = 8.06846e-07, Final residual = 3.58922e-10, No Iterations 2
max/min kappa: 0.000225876/0
max/min source: 1.0727e-07/-2.62159e-09
DICPCG:  Solving for pcorr, Initial residual = 1, Final residual = 7.77898e-10, No Iterations 85
ExecutionTime = 0.42 s  ClockTime = 1 s

Courant Number mean: 1.97495e-05 max: 0.000375601
deltaT = 4.29913e-05
Time = 0.000197989

diagonal:  Solving for rho1, Initial residual = 0, Final residual = 0, No Iterations 0
diagonal:  Solving for rho2, Initial residual = 0, Final residual = 0, No Iterations 0
PIMPLE: iteration 1
MULES: Solving for volumeFraction1
Phase-1 volume fraction = 0.130194  Min(volumeFraction1) = -3.18899e-39  Max(volumeFraction1) = 1
 max: rho1 1000.06 min: 1000.04
 max: rho2 1.3114 min: 1.29312
DILUPBiCGStab:  Solving for T, Initial residual = 0.00524793, Final residual = 3.12048e-14, No Iterations 1
 C1 1458.71 C2 331.202
DILUPBiCGStab:  Solving for p_rgh, Initial residual = 5.14362e-05, Final residual = 7.47238e-10, No Iterations 10
max/min kappa: 0.000189617/0
max/min source: 3.81399e-07/-3.63822e-09
DICPCG:  Solving for pcorr, Initial residual = 1, Final residual = 7.047e-10, No Iterations 85
PIMPLE: iteration 2
MULES: Solving for volumeFraction1
Phase-1 volume fraction = 0.130194  Min(volumeFraction1) = -3.18898e-39  Max(volumeFraction1) = 1
 max: rho1 1000.05 min: 1000.05
 max: rho2 1.31113 min: 1.29312
DILUPBiCGStab:  Solving for T, Initial residual = 0.00398071, Final residual = 1.79064e-14, No Iterations 1
 C1 1458.71 C2 331.202
DILUPBiCGStab:  Solving for p_rgh, Initial residual = 9.95582e-06, Final residual = 6.73045e-10, No Iterations 3
max/min kappa: 0.000227237/0
max/min source: 2.16327e-07/-4.17814e-09
DICPCG:  Solving for pcorr, Initial residual = 1, Final residual = 7.13606e-10, No Iterations 85
PIMPLE: iteration 3
MULES: Solving for volumeFraction1
Phase-1 volume fraction = 0.130194  Min(volumeFraction1) = -8.169e-40  Max(volumeFraction1) = 1
 max: rho1 1000.05 min: 1000.05
 max: rho2 1.31113 min: 1.29313
DILUPBiCGStab:  Solving for T, Initial residual = 5.69973e-05, Final residual = 3.27394e-14, No Iterations 1
 C1 1458.71 C2 331.202
DILUPBiCGStab:  Solving for p_rgh, Initial residual = 9.93684e-07, Final residual = 4.91607e-10, No Iterations 2
max/min kappa: 0.00022447/0
max/min source: 1.82322e-07/-4.22509e-09
DICPCG:  Solving for pcorr, Initial residual = 1, Final residual = 7.75655e-10, No Iterations 85
ExecutionTime = 0.48 s  ClockTime = 1 s

Courant Number mean: 2.91213e-05 max: 0.000533791
deltaT = 5.15895e-05
Time = 0.000249578

diagonal:  Solving for rho1, Initial residual = 0, Final residual = 0, No Iterations 0
diagonal:  Solving for rho2, Initial residual = 0, Final residual = 0, No Iterations 0
PIMPLE: iteration 1
MULES: Solving for volumeFraction1
Phase-1 volume fraction = 0.130194  Min(volumeFraction1) = -1.03374e-39  Max(volumeFraction1) = 1
 max: rho1 1000.06 min: 1000.04
 max: rho2 1.31113 min: 1.29312
DILUPBiCGStab:  Solving for T, Initial residual = 0.00254234, Final residual = 1.71051e-13, No Iterations 1
 C1 1458.71 C2 331.202
DILUPBiCGStab:  Solving for p_rgh, Initial residual = 4.87242e-05, Final residual = 2.58533e-10, No Iterations 11
max/min kappa: 0.00018837/0
max/min source: 4.4457e-07/-5.45409e-09
DICPCG:  Solving for pcorr, Initial residual = 1, Final residual = 7.04992e-10, No Iterations 85
PIMPLE: iteration 2
MULES: Solving for volumeFraction1
Phase-1 volume fraction = 0.130194  Min(volumeFraction1) = -4.52422e-39  Max(volumeFraction1) = 1
 max: rho1 1000.05 min: 1000.05
 max: rho2 1.30947 min: 1.29312
DILUPBiCGStab:  Solving for T, Initial residual = 0.00462011, Final residual = 9.21461e-14, No Iterations 1
 C1 1458.71 C2 331.202
DILUPBiCGStab:  Solving for p_rgh, Initial residual = 9.5586e-06, Final residual = 3.97069e-10, No Iterations 3
max/min kappa: 0.0002189/0
max/min source: 2.73737e-07/-6.19224e-09
DICPCG:  Solving for pcorr, Initial residual = 1, Final residual = 7.11162e-10, No Iterations 85
PIMPLE: iteration 3
MULES: Solving for volumeFraction1
Phase-1 volume fraction = 0.130194  Min(volumeFraction1) = -1.05657e-27  Max(volumeFraction1) = 1
 max: rho1 1000.05 min: 1000.05
 max: rho2 1.30947 min: 1.29313
DILUPBiCGStab:  Solving for T, Initial residual = 7.49894e-05, Final residual = 8.7471e-14, No Iterations 1
 C1 1458.71 C2 331.202
DILUPBiCGStab:  Solving for p_rgh, Initial residual = 1.08693e-06, Final residual = 6.90991e-10, No Iterations 2
max/min kappa: 0.000217317/0
max/min source: 2.44719e-07/-6.24552e-09
DICPCG:  Solving for pcorr, Initial residual = 1, Final residual = 7.81872e-10, No Iterations 85
ExecutionTime = 0.54 s  ClockTime = 1 s

Courant Number mean: 4.18532e-05 max: 0.000737574
deltaT = 6.17115e-05
Time = 0.00031129

diagonal:  Solving for rho1, Initial residual = 0, Final residual = 0, No Iterations 0
diagonal:  Solving for rho2, Initial residual = 0, Final residual = 0, No Iterations 0
PIMPLE: iteration 1
MULES: Solving for volumeFraction1
Phase-1 volume fraction = 0.130194  Min(volumeFraction1) = -2.17916e-27  Max(volumeFraction1) = 1
 max: rho1 1000.06 min: 1000.03
 max: rho2 1.30947 min: 1.29312
DILUPBiCGStab:  Solving for T, Initial residual = 0.00411072, Final residual = 4.54428e-13, No Iterations 1
 C1 1458.71 C2 331.202
DILUPBiCGStab:  Solving for p_rgh, Initial residual = 4.61295e-05, Final residual = 2.6569e-10, No Iterations 11
max/min kappa: 0.000181795/0
max/min source: 4.85771e-07/-7.64488e-09
DICPCG:  Solving for pcorr, Initial residual = 1, Final residual = 6.97108e-10, No Iterations 85
PIMPLE: iteration 2
MULES: Solving for volumeFraction1
Phase-1 volume fraction = 0.130194  Min(volumeFraction1) = -2.3446e-27  Max(volumeFraction1) = 1
 max: rho1 1000.05 min: 1000.05
 max: rho2 1.30748 min: 1.29313
DILUPBiCGStab:  Solving for T, Initial residual = 0.00199901, Final residual = 2.40177e-13, No Iterations 1
 C1 1458.71 C2 331.202
DILUPBiCGStab:  Solving for p_rgh, Initial residual = 8.44779e-06, Final residual = 6.58262e-10, No Iterations 3
max/min kappa: 0.000206835/0
max/min source: 3.1528e-07/-8.59248e-09
DICPCG:  Solving for pcorr, Initial residual = 1, Final residual = 7.55552e-10, No Iterations 85
PIMPLE: iteration 3
MULES: Solving for volumeFraction1
Phase-1 volume fraction = 0.130194  Min(volumeFraction1) = -1.16113e-39  Max(volumeFraction1) = 1
 max: rho1 1000.05 min: 1000.05
 max: rho2 1.30748 min: 1.29313
DILUPBiCGStab:  Solving for T, Initial residual = 9.87965e-05, Final residual = 2.06191e-13, No Iterations 1
 C1 1458.71 C2 331.202
DILUPBiCGStab:  Solving for p_rgh, Initial residual = 1.05554e-06, Final residual = 9.46595e-10, No Iterations 3
max/min kappa: 0.000205361/0
max/min source: 2.92386e-07/-8.64596e-09
DICPCG:  Solving for pcorr, Initial residual = 1, Final residual = 7.08157e-10, No Iterations 85
ExecutionTime = 0.59 s  ClockTime = 1 s

Courant Number mean: 5.8458e-05 max: 0.00099124
deltaT = 7.39596e-05
Time = 0.000385249

diagonal:  Solving for rho1, Initial residual = 0, Final residual = 0, No Iterations 0
diagonal:  Solving for rho2, Initial residual = 0, Final residual = 0, No Iterations 0
PIMPLE: iteration 1
MULES: Solving for volumeFraction1
Phase-1 volume fraction = 0.130194  Min(volumeFraction1) = -1.16113e-39  Max(volumeFraction1) = 1
 max: rho1 1000.06 min: 1000.03
 max: rho2 1.30748 min: 1.29312
DILUPBiCGStab:  Solving for T, Initial residual = 0.0074109, Final residual = 1.05073e-12, No Iterations 1
 C1 1458.71 C2 331.202
DILUPBiCGStab:  Solving for p_rgh, Initial residual = 3.36816e-05, Final residual = 3.27355e-10, No Iterations 10
max/min kappa: 0.000171499/0
max/min source: 5.06893e-07/-1.06124e-08
DICPCG:  Solving for pcorr, Initial residual = 1, Final residual = 6.72032e-10, No Iterations 85
PIMPLE: iteration 2
MULES: Solving for volumeFraction1
Phase-1 volume fraction = 0.130194  Min(volumeFraction1) = -4.19923e-27  Max(volumeFraction1) = 1
 max: rho1 1000.05 min: 1000.05
 max: rho2 1.30634 min: 1.29313
DILUPBiCGStab:  Solving for T, Initial residual = 0.00375141, Final residual = 6.95468e-13, No Iterations 1
 C1 1458.71 C2 331.202
DILUPBiCGStab:  Solving for p_rgh, Initial residual = 7.11705e-06, Final residual = 6.66265e-10, No Iterations 4
max/min kappa: 0.000190239/0
max/min source: 3.44496e-07/-1.17981e-08
DICPCG:  Solving for pcorr, Initial residual = 1, Final residual = 6.71623e-10, No Iterations 85
PIMPLE: iteration 3
MULES: Solving for volumeFraction1
Phase-1 volume fraction = 0.130194  Min(volumeFraction1) = -1.16113e-39  Max(volumeFraction1) = 1
 max: rho1 1000.05 min: 1000.05
 max: rho2 1.30634 min: 1.29313
DILUPBiCGStab:  Solving for T, Initial residual = 0.000131485, Final residual = 3.93314e-13, No Iterations 1
 C1 1458.71 C2 331.202
DILUPBiCGStab:  Solving for p_rgh, Initial residual = 9.25699e-07, Final residual = 3.6982e-10, No Iterations 4
max/min kappa: 0.000188977/0
max/min source: 3.27819e-07/-1.1839e-08
DICPCG:  Solving for pcorr, Initial residual = 1, Final residual = 6.86353e-10, No Iterations 85
ExecutionTime = 0.65 s  ClockTime = 1 s

Courant Number mean: 7.945e-05 max: 0.0013061
deltaT = 8.90255e-05
Time = 0.000474275

diagonal:  Solving for rho1, Initial residual = 0, Final residual = 0, No Iterations 0
diagonal:  Solving for rho2, Initial residual = 0, Final residual = 0, No Iterations 0
PIMPLE: iteration 1
MULES: Solving for volumeFraction1
Phase-1 volume fraction = 0.130194  Min(volumeFraction1) = -1.33163e-26  Max(volumeFraction1) = 1
 max: rho1 1000.06 min: 1000.03
 max: rho2 1.30634 min: 1.29312
DILUPBiCGStab:  Solving for T, Initial residual = 0.0065362, Final residual = 2.0285e-12, No Iterations 1
 C1 1458.71 C2 331.202
DILUPBiCGStab:  Solving for p_rgh, Initial residual = 1.99457e-05, Final residual = 7.77594e-10, No Iterations 12
max/min kappa: 0.000157152/0
max/min source: 5.23617e-07/-1.51967e-08
DICPCG:  Solving for pcorr, Initial residual = 1, Final residual = 8.39009e-10, No Iterations 84
PIMPLE: iteration 2
MULES: Solving for volumeFraction1
Phase-1 volume fraction = 0.130194  Min(volumeFraction1) = -9.72355e-27  Max(volumeFraction1) = 1
 max: rho1 1000.05 min: 1000.05
 max: rho2 1.30642 min: 1.29313
DILUPBiCGStab:  Solving for T, Initial residual = 0.0064533, Final residual = 2.13289e-12, No Iterations 1
 C1 1458.71 C2 331.202
DILUPBiCGStab:  Solving for p_rgh, Initial residual = 5.92411e-06, Final residual = 8.39739e-10, No Iterations 5
max/min kappa: 0.000170606/0
max/min source: 3.76681e-07/-1.67759e-08
DICPCG:  Solving for pcorr, Initial residual = 1, Final residual = 8.1588e-10, No Iterations 84
PIMPLE: iteration 3
MULES: Solving for volumeFraction1
Phase-1 volume fraction = 0.130194  Min(volumeFraction1) = -5.29851e-27  Max(volumeFraction1) = 1
 max: rho1 1000.05 min: 1000.05
 max: rho2 1.30642 min: 1.29313
DILUPBiCGStab:  Solving for T, Initial residual = 0.000188545, Final residual = 3.93007e-13, No Iterations 1
 C1 1458.71 C2 331.202
DILUPBiCGStab:  Solving for p_rgh, Initial residual = 7.39291e-07, Final residual = 5.69911e-10, No Iterations 4
max/min kappa: 0.000169629/0
max/min source: 3.65833e-07/-1.67889e-08
DICPCG:  Solving for pcorr, Initial residual = 1, Final residual = 8.42973e-10, No Iterations 84
ExecutionTime = 0.71 s  ClockTime = 1 s

Courant Number mean: 0.000104976 max: 0.00169535
deltaT = 0.000107031
Time = 0.000581306

diagonal:  Solving for rho1, Initial residual = 0, Final residual = 0, No Iterations 0
diagonal:  Solving for rho2, Initial residual = 0, Final residual = 0, No Iterations 0
PIMPLE: iteration 1
MULES: Solving for volumeFraction1
Phase-1 volume fraction = 0.130194  Min(volumeFraction1) = -7.96141e-27  Max(volumeFraction1) = 1
 max: rho1 1000.06 min: 1000.03
 max: rho2 1.30642 min: 1.29312
DILUPBiCGStab:  Solving for T, Initial residual = 0.00312543, Final residual = 2.99969e-12, No Iterations 1
 C1 1458.71 C2 331.202
DILUPBiCGStab:  Solving for p_rgh, Initial residual = 3.25196e-05, Final residual = 6.32621e-10, No Iterations 13
max/min kappa: 0.000141243/0
max/min source: 5.65566e-07/-2.21993e-08
DICPCG:  Solving for pcorr, Initial residual = 1, Final residual = 7.20071e-10, No Iterations 83
PIMPLE: iteration 2
MULES: Solving for volumeFraction1
Phase-1 volume fraction = 0.130194  Min(volumeFraction1) = -1.16112e-39  Max(volumeFraction1) = 1
 max: rho1 1000.05 min: 1000.05
 max: rho2 1.30696 min: 1.29313
DILUPBiCGStab:  Solving for T, Initial residual = 0.00389533, Final residual = 7.55898e-12, No Iterations 1
 C1 1458.71 C2 331.202
DILUPBiCGStab:  Solving for p_rgh, Initial residual = 5.14759e-06, Final residual = 9.34824e-10, No Iterations 7
max/min kappa: 0.000150775/0
max/min source: 4.39043e-07/-2.44273e-08
DICPCG:  Solving for pcorr, Initial residual = 1, Final residual = 7.01158e-10, No Iterations 83
PIMPLE: iteration 3
MULES: Solving for volumeFraction1
Phase-1 volume fraction = 0.130194  Min(volumeFraction1) = -3.5736e-26  Max(volumeFraction1) = 1
 max: rho1 1000.05 min: 1000.05
 max: rho2 1.30696 min: 1.29313
DILUPBiCGStab:  Solving for T, Initial residual = 0.000286627, Final residual = 8.76645e-13, No Iterations 1
 C1 1458.71 C2 331.202
DILUPBiCGStab:  Solving for p_rgh, Initial residual = 5.28504e-07, Final residual = 7.16456e-10, No Iterations 5
max/min kappa: 0.000150129/0
max/min source: 4.33664e-07/-2.43876e-08
DICPCG:  Solving for pcorr, Initial residual = 1, Final residual = 6.96956e-10, No Iterations 83
ExecutionTime = 0.77 s  ClockTime = 1 s

Courant Number mean: 0.000133834 max: 0.00216002
deltaT = 0.000129023
Time = 0.000710329

diagonal:  Solving for rho1, Initial residual = 0, Final residual = 0, No Iterations 0
diagonal:  Solving for rho2, Initial residual = 0, Final residual = 0, No Iterations 0
PIMPLE: iteration 1
MULES: Solving for volumeFraction1
Phase-1 volume fraction = 0.130194  Min(volumeFraction1) = -4.04111e-39  Max(volumeFraction1) = 1
 max: rho1 1000.06 min: 1000.03
 max: rho2 1.30696 min: 1.29312
DILUPBiCGStab:  Solving for T, Initial residual = 0.00747135, Final residual = 1.50503e-11, No Iterations 1
 C1 1458.71 C2 331.203
DILUPBiCGStab:  Solving for p_rgh, Initial residual = 4.57118e-05, Final residual = 7.03916e-10, No Iterations 14
max/min kappa: 0.000124668/0
max/min source: 6.39921e-07/-3.11513e-08
DICPCG:  Solving for pcorr, Initial residual = 1, Final residual = 9.98024e-10, No Iterations 82
PIMPLE: iteration 2
MULES: Solving for volumeFraction1
Phase-1 volume fraction = 0.130194  Min(volumeFraction1) = -1.15223e-26  Max(volumeFraction1) = 1
 max: rho1 1000.05 min: 1000.05
 max: rho2 1.30722 min: 1.29313
DILUPBiCGStab:  Solving for T, Initial residual = 0.00493241, Final residual = 3.40214e-11, No Iterations 1
 C1 1458.71 C2 331.203
DILUPBiCGStab:  Solving for p_rgh, Initial residual = 5.07509e-06, Final residual = 7.37984e-10, No Iterations 9
max/min kappa: 0.000132039/0
max/min source: 5.33587e-07/-3.40821e-08
DICPCG:  Solving for pcorr, Initial residual = 1, Final residual = 9.56497e-10, No Iterations 82
PIMPLE: iteration 3
MULES: Solving for volumeFraction1
Phase-1 volume fraction = 0.130194  Min(volumeFraction1) = -6.36966e-26  Max(volumeFraction1) = 1
 max: rho1 1000.05 min: 1000.05
 max: rho2 1.30722 min: 1.29313
DILUPBiCGStab:  Solving for T, Initial residual = 0.000474242, Final residual = 3.82841e-12, No Iterations 1
 C1 1458.71 C2 331.203
DILUPBiCGStab:  Solving for p_rgh, Initial residual = 3.44836e-07, Final residual = 9.06084e-10, No Iterations 5
max/min kappa: 0.000131659/0
max/min source: 5.31759e-07/-3.39466e-08
DICPCG:  Solving for pcorr, Initial residual = 1, Final residual = 9.51747e-10, No Iterations 82
ExecutionTime = 0.82 s  ClockTime = 1 s

Courant Number mean: 0.000165555 max: 0.00275713
deltaT = 0.000154828
Time = 0.000865157

diagonal:  Solving for rho1, Initial residual = 0, Final residual = 0, No Iterations 0
diagonal:  Solving for rho2, Initial residual = 0, Final residual = 0, No Iterations 0
PIMPLE: iteration 1
MULES: Solving for volumeFraction1
Phase-1 volume fraction = 0.130194  Min(volumeFraction1) = -3.66822e-39  Max(volumeFraction1) = 1
 max: rho1 1000.06 min: 1000.03
 max: rho2 1.30722 min: 1.29312
DILUPBiCGStab:  Solving for T, Initial residual = 0.0096787, Final residual = 1.56934e-10, No Iterations 1
 C1 1458.71 C2 331.203
DILUPBiCGStab:  Solving for p_rgh, Initial residual = 6.14727e-05, Final residual = 5.86333e-10, No Iterations 14
max/min kappa: 0.000109813/0
max/min source: 7.09066e-07/-3.72187e-08
DICPCG:  Solving for pcorr, Initial residual = 1, Final residual = 7.42264e-10, No Iterations 84
PIMPLE: iteration 2
MULES: Solving for volumeFraction1
Phase-1 volume fraction = 0.130194  Min(volumeFraction1) = -3.22216e-25  Max(volumeFraction1) = 1
 max: rho1 1000.05 min: 1000.05
 max: rho2 1.3072 min: 1.29313
DILUPBiCGStab:  Solving for T, Initial residual = 0.0104064, Final residual = 7.17356e-11, No Iterations 1
 C1 1458.71 C2 331.203
DILUPBiCGStab:  Solving for p_rgh, Initial residual = 6.42067e-06, Final residual = 9.76789e-10, No Iterations 10
max/min kappa: 0.000116418/0
max/min source: 6.14206e-07/-4.0267e-08
DICPCG:  Solving for pcorr, Initial residual = 1, Final residual = 7.31324e-10, No Iterations 84
PIMPLE: iteration 3
MULES: Solving for volumeFraction1
Phase-1 volume fraction = 0.130194  Min(volumeFraction1) = -6.68957e-26  Max(volumeFraction1) = 1
 max: rho1 1000.05 min: 1000.05
 max: rho2 1.3072 min: 1.29313
DILUPBiCGStab:  Solving for T, Initial residual = 0.00107831, Final residual = 3.98828e-12, No Iterations 1
 C1 1458.71 C2 331.203
DILUPBiCGStab:  Solving for p_rgh, Initial residual = 2.23706e-07, Final residual = 9.37112e-10, No Iterations 8
max/min kappa: 0.00011617/0
max/min source: 6.1312e-07/-3.98664e-08
