/*---------------------------------------------------------------------------*\
| =========                 |                                                 |
| \\      /  F ield         | OpenFOAM: The Open Source CFD Toolbox           |
|  \\    /   O peration     | Version:  3.0.1                                 |
|   \\  /    A nd           | Web:      www.OpenFOAM.org                      |
|    \\/     M anipulation  |                                                 |
\*---------------------------------------------------------------------------*/
Build  : 3.0.1-d8a290b55d28
Exec   : rhoPimpleFoam
Date   : Oct 13 2016
Time   : 17:14:02
Host   : "bl022.unicluster.ru"
PID    : 16881
Case   : /lustre/unicluster/home/matvey.kraposhin/run/Unicfdlab/github-hybridCentralSolvers/Tutorials-3.0.1/case-subsonic/Piso-2
nProcs : 1
sigFpe : Enabling floating point exception trapping (FOAM_SIGFPE).
fileModificationChecking : Monitoring run-time modified files using timeStampMaster
allowSystemOperations : Allowing user-supplied system call operations

// * * * * * * * * * * * * * * * * * * * * * * * * * * * * * * * * * * * * * //
Create time

Create mesh for time = 0


PIMPLE: Operating solver in PISO mode

Reading thermophysical properties

Selecting thermodynamics package 
{
    type            hePsiThermo;
    mixture         pureMixture;
    transport       const;
    thermo          hConst;
    equationOfState perfectGas;
    specie          specie;
    energy          sensibleEnthalpy;
}

Reading field U

Reading/calculating face flux field phi

Creating turbulence model

Selecting turbulence model type laminar
Creating field dpdt

Creating field kinetic energy K

No MRF models present

No finite volume options present

Courant Number mean: 0 max: 0

Starting time loop

Courant Number mean: 0 max: 0
Time = 1e-06

diagonal:  Solving for rho, Initial residual = 0, Final residual = 0, No Iterations 0
PIMPLE: iteration 1
DILUPBiCG:  Solving for h, Initial residual = 1, Final residual = 5.25674e-18, No Iterations 1
DILUPBiCG:  Solving for p, Initial residual = 0.000178356, Final residual = 8.18362e-14, No Iterations 2
diagonal:  Solving for rho, Initial residual = 0, Final residual = 0, No Iterations 0
time step continuity errors : sum local = 1.29419e-14, global = 1.38098e-16, cumulative = 1.38098e-16
rho max/min : 0.83124 0.710718
ExecutionTime = 0.05 s  ClockTime = 0 s

Courant Number mean: 1.40258e-05 max: 0.000748533
Time = 2e-06

diagonal:  Solving for rho, Initial residual = 0, Final residual = 0, No Iterations 0
PIMPLE: iteration 1
DILUPBiCG:  Solving for h, Initial residual = 1, Final residual = 4.241e-16, No Iterations 1
DILUPBiCG:  Solving for p, Initial residual = 0.00036836, Final residual = 1.81716e-13, No Iterations 2
diagonal:  Solving for rho, Initial residual = 0, Final residual = 0, No Iterations 0
time step continuity errors : sum local = 2.85131e-14, global = -2.75202e-15, cumulative = -2.61392e-15
rho max/min : 0.83124 0.710718
ExecutionTime = 0.05 s  ClockTime = 0 s

Courant Number mean: 3.22964e-05 max: 0.00152357
Time = 3e-06

diagonal:  Solving for rho, Initial residual = 0, Final residual = 0, No Iterations 0
PIMPLE: iteration 1
DILUPBiCG:  Solving for h, Initial residual = 0.489834, Final residual = 3.4833e-13, No Iterations 1
DILUPBiCG:  Solving for p, Initial residual = 0.000544704, Final residual = 2.95012e-13, No Iterations 2
diagonal:  Solving for rho, Initial residual = 0, Final residual = 0, No Iterations 0
time step continuity errors : sum local = 4.61503e-14, global = -7.36943e-15, cumulative = -9.98335e-15
rho max/min : 0.83124 0.710718
ExecutionTime = 0.05 s  ClockTime = 0 s

Courant Number mean: 4.84782e-05 max: 0.00219748
Time = 4e-06

diagonal:  Solving for rho, Initial residual = 0, Final residual = 0, No Iterations 0
PIMPLE: iteration 1
DILUPBiCG:  Solving for h, Initial residual = 0.31686, Final residual = 5.09562e-13, No Iterations 1
DILUPBiCG:  Solving for p, Initial residual = 0.000704394, Final residual = 4.05308e-13, No Iterations 2
diagonal:  Solving for rho, Initial residual = 0, Final residual = 0, No Iterations 0
time step continuity errors : sum local = 6.32944e-14, global = -1.28592e-14, cumulative = -2.28426e-14
rho max/min : 0.83124 0.710718
ExecutionTime = 0.06 s  ClockTime = 0 s

Courant Number mean: 6.24436e-05 max: 0.00277353
Time = 5e-06

diagonal:  Solving for rho, Initial residual = 0, Final residual = 0, No Iterations 0
PIMPLE: iteration 1
DILUPBiCG:  Solving for h, Initial residual = 0.23105, Final residual = 6.09637e-13, No Iterations 1
DILUPBiCG:  Solving for p, Initial residual = 0.000846923, Final residual = 5.12617e-13, No Iterations 2
diagonal:  Solving for rho, Initial residual = 0, Final residual = 0, No Iterations 0
time step continuity errors : sum local = 7.99159e-14, global = -1.91362e-14, cumulative = -4.19788e-14
rho max/min : 0.83124 0.710718
ExecutionTime = 0.06 s  ClockTime = 0 s

Courant Number mean: 7.7045e-05 max: 0.00332721
Time = 6e-06

diagonal:  Solving for rho, Initial residual = 0, Final residual = 0, No Iterations 0
PIMPLE: iteration 1
DILUPBiCG:  Solving for h, Initial residual = 0.180119, Final residual = 6.43641e-13, No Iterations 1
DILUPBiCG:  Solving for p, Initial residual = 0.000972365, Final residual = 6.12296e-13, No Iterations 2
diagonal:  Solving for rho, Initial residual = 0, Final residual = 0, No Iterations 0
time step continuity errors : sum local = 9.52475e-14, global = -2.53707e-14, cumulative = -6.73495e-14
rho max/min : 0.83124 0.710718
ExecutionTime = 0.06 s  ClockTime = 0 s

Courant Number mean: 9.1078e-05 max: 0.00382507
Time = 7e-06

diagonal:  Solving for rho, Initial residual = 0, Final residual = 0, No Iterations 0
PIMPLE: iteration 1
DILUPBiCG:  Solving for h, Initial residual = 0.146372, Final residual = 6.52223e-13, No Iterations 1
DILUPBiCG:  Solving for p, Initial residual = 0.00108077, Final residual = 7.00614e-13, No Iterations 2
diagonal:  Solving for rho, Initial residual = 0, Final residual = 0, No Iterations 0
time step continuity errors : sum local = 1.08767e-13, global = -3.09791e-14, cumulative = -9.83286e-14
rho max/min : 0.83124 0.710718
ExecutionTime = 0.07 s  ClockTime = 0 s

Courant Number mean: 0.000104863 max: 0.00427381
Time = 8e-06

diagonal:  Solving for rho, Initial residual = 0, Final residual = 0, No Iterations 0
PIMPLE: iteration 1
DILUPBiCG:  Solving for h, Initial residual = 0.122336, Final residual = 6.30841e-13, No Iterations 1
DILUPBiCG:  Solving for p, Initial residual = 0.00117242, Final residual = 7.73482e-13, No Iterations 2
diagonal:  Solving for rho, Initial residual = 0, Final residual = 0, No Iterations 0
time step continuity errors : sum local = 1.19796e-13, global = -3.54711e-14, cumulative = -1.338e-13
rho max/min : 0.83124 0.710718
ExecutionTime = 0.07 s  ClockTime = 0 s

Courant Number mean: 0.000118385 max: 0.00467381
Time = 9e-06

diagonal:  Solving for rho, Initial residual = 0, Final residual = 0, No Iterations 0
PIMPLE: iteration 1
DILUPBiCG:  Solving for h, Initial residual = 0.104304, Final residual = 5.92091e-13, No Iterations 1
DILUPBiCG:  Solving for p, Initial residual = 0.00124789, Final residual = 8.26984e-13, No Iterations 2
diagonal:  Solving for rho, Initial residual = 0, Final residual = 0, No Iterations 0
time step continuity errors : sum local = 1.27771e-13, global = -3.83998e-14, cumulative = -1.72199e-13
rho max/min : 0.83124 0.710718
ExecutionTime = 0.07 s  ClockTime = 0 s

Courant Number mean: 0.000131741 max: 0.0050272
Time = 1e-05

diagonal:  Solving for rho, Initial residual = 0, Final residual = 0, No Iterations 0
PIMPLE: iteration 1
DILUPBiCG:  Solving for h, Initial residual = 0.0902701, Final residual = 5.36968e-13, No Iterations 1
DILUPBiCG:  Solving for p, Initial residual = 0.00130807, Final residual = 8.57255e-13, No Iterations 2
diagonal:  Solving for rho, Initial residual = 0, Final residual = 0, No Iterations 0
time step continuity errors : sum local = 1.32101e-13, global = -3.94668e-14, cumulative = -2.11666e-13
rho max/min : 0.83124 0.710718
ExecutionTime = 0.07 s  ClockTime = 0 s

Courant Number mean: 0.000144993 max: 0.00533722
Time = 1.1e-05

diagonal:  Solving for rho, Initial residual = 0, Final residual = 0, No Iterations 0
PIMPLE: iteration 1
DILUPBiCG:  Solving for h, Initial residual = 0.0790348, Final residual = 4.72515e-13, No Iterations 1
DILUPBiCG:  Solving for p, Initial residual = 0.00135413, Final residual = 8.60163e-13, No Iterations 2
diagonal:  Solving for rho, Initial residual = 0, Final residual = 0, No Iterations 0
time step continuity errors : sum local = 1.32221e-13, global = -3.84966e-14, cumulative = -2.50163e-13
rho max/min : 0.83124 0.710718
ExecutionTime = 0.08 s  ClockTime = 0 s

Courant Number mean: 0.000158239 max: 0.00560796
Time = 1.2e-05

diagonal:  Solving for rho, Initial residual = 0, Final residual = 0, No Iterations 0
PIMPLE: iteration 1
DILUPBiCG:  Solving for h, Initial residual = 0.069844, Final residual = 4.03235e-13, No Iterations 1
DILUPBiCG:  Solving for p, Initial residual = 0.00138746, Final residual = 8.30516e-13, No Iterations 2
diagonal:  Solving for rho, Initial residual = 0, Final residual = 0, No Iterations 0
time step continuity errors : sum local = 1.27314e-13, global = -3.54167e-14, cumulative = -2.85579e-13
rho max/min : 0.83124 0.710718
ExecutionTime = 0.08 s  ClockTime = 0 s

Courant Number mean: 0.000171578 max: 0.00584412
Time = 1.3e-05

diagonal:  Solving for rho, Initial residual = 0, Final residual = 0, No Iterations 0
PIMPLE: iteration 1
DILUPBiCG:  Solving for h, Initial residual = 0.0621979, Final residual = 3.33467e-13, No Iterations 1
DILUPBiCG:  Solving for p, Initial residual = 0.00140959, Final residual = 7.67195e-13, No Iterations 2
diagonal:  Solving for rho, Initial residual = 0, Final residual = 0, No Iterations 0
time step continuity errors : sum local = 1.17288e-13, global = -3.01939e-14, cumulative = -3.15773e-13
rho max/min : 0.83124 0.710718
ExecutionTime = 0.08 s  ClockTime = 0 s

Courant Number mean: 0.000185121 max: 0.00605082
Time = 1.4e-05

diagonal:  Solving for rho, Initial residual = 0, Final residual = 0, No Iterations 0
PIMPLE: iteration 1
DILUPBiCG:  Solving for h, Initial residual = 0.0557477, Final residual = 2.71164e-13, No Iterations 1
DILUPBiCG:  Solving for p, Initial residual = 0.00142215, Final residual = 7.28021e-13, No Iterations 2
diagonal:  Solving for rho, Initial residual = 0, Final residual = 0, No Iterations 0
time step continuity errors : sum local = 1.10983e-13, global = -2.27196e-14, cumulative = -3.38493e-13
rho max/min : 0.83124 0.710718
ExecutionTime = 0.09 s  ClockTime = 0 s

Courant Number mean: 0.00019898 max: 0.00623349
Time = 1.5e-05

diagonal:  Solving for rho, Initial residual = 0, Final residual = 0, No Iterations 0
PIMPLE: iteration 1
DILUPBiCG:  Solving for h, Initial residual = 0.0502505, Final residual = 2.17532e-13, No Iterations 1
DILUPBiCG:  Solving for p, Initial residual = 0.00142688, Final residual = 7.11114e-13, No Iterations 2
diagonal:  Solving for rho, Initial residual = 0, Final residual = 0, No Iterations 0
time step continuity errors : sum local = 1.08092e-13, global = -1.2528e-14, cumulative = -3.51021e-13
rho max/min : 0.83124 0.710718
ExecutionTime = 0.09 s  ClockTime = 0 s

Courant Number mean: 0.000213257 max: 0.00639793
Time = 1.6e-05

diagonal:  Solving for rho, Initial residual = 0, Final residual = 0, No Iterations 0
PIMPLE: iteration 1
DILUPBiCG:  Solving for h, Initial residual = 0.0455371, Final residual = 1.82429e-13, No Iterations 1
DILUPBiCG:  Solving for p, Initial residual = 0.00142558, Final residual = 9.16457e-13, No Iterations 2
diagonal:  Solving for rho, Initial residual = 0, Final residual = 0, No Iterations 0
time step continuity errors : sum local = 1.38889e-13, global = 1.66538e-15, cumulative = -3.49356e-13
rho max/min : 0.83124 0.710718
ExecutionTime = 0.09 s  ClockTime = 0 s

Courant Number mean: 0.000227984 max: 0.00655033
Time = 1.7e-05

diagonal:  Solving for rho, Initial residual = 0, Final residual = 0, No Iterations 0
PIMPLE: iteration 1
DILUPBiCG:  Solving for h, Initial residual = 0.0414776, Final residual = 1.49331e-13, No Iterations 1
DILUPBiCG:  Solving for p, Initial residual = 0.00141966, Final residual = 1.54855e-12, No Iterations 2
diagonal:  Solving for rho, Initial residual = 0, Final residual = 0, No Iterations 0
time step continuity errors : sum local = 2.34013e-13, global = 1.24461e-14, cumulative = -3.36909e-13
rho max/min : 0.83124 0.710718
ExecutionTime = 0.09 s  ClockTime = 0 s

Courant Number mean: 0.000243159 max: 0.00669775
Time = 1.8e-05

diagonal:  Solving for rho, Initial residual = 0, Final residual = 0, No Iterations 0
PIMPLE: iteration 1
DILUPBiCG:  Solving for h, Initial residual = 0.0379757, Final residual = 1.35512e-13, No Iterations 1
DILUPBiCG:  Solving for p, Initial residual = 0.00140855, Final residual = 1.50192e-12, No Iterations 2
diagonal:  Solving for rho, Initial residual = 0, Final residual = 0, No Iterations 0
time step continuity errors : sum local = 2.26578e-13, global = -2.40569e-15, cumulative = -3.39315e-13
rho max/min : 0.83124 0.710718
ExecutionTime = 0.1 s  ClockTime = 0 s

Courant Number mean: 0.000258097 max: 0.00681219
Time = 1.9e-05

diagonal:  Solving for rho, Initial residual = 0, Final residual = 0, No Iterations 0
PIMPLE: iteration 1
DILUPBiCG:  Solving for h, Initial residual = 0.034768, Final residual = 9.20029e-14, No Iterations 1
DILUPBiCG:  Solving for p, Initial residual = 0.00138211, Final residual = 5.20026e-13, No Iterations 2
diagonal:  Solving for rho, Initial residual = 0, Final residual = 0, No Iterations 0
time step continuity errors : sum local = 7.84218e-14, global = -7.32926e-15, cumulative = -3.46644e-13
rho max/min : 0.83124 0.710718
ExecutionTime = 0.1 s  ClockTime = 0 s

Courant Number mean: 0.000272683 max: 0.00689324
Time = 2e-05

diagonal:  Solving for rho, Initial residual = 0, Final residual = 0, No Iterations 0
PIMPLE: iteration 1
DILUPBiCG:  Solving for h, Initial residual = 0.0318333, Final residual = 6.05238e-14, No Iterations 1
DILUPBiCG:  Solving for p, Initial residual = 0.00134919, Final residual = 6.15267e-13, No Iterations 2
diagonal:  Solving for rho, Initial residual = 0, Final residual = 0, No Iterations 0
time step continuity errors : sum local = 9.26084e-14, global = -9.34888e-15, cumulative = -3.55993e-13
rho max/min : 0.83124 0.710718
ExecutionTime = 0.1 s  ClockTime = 0 s

Courant Number mean: 0.000286838 max: 0.00694023
Time = 2.1e-05

diagonal:  Solving for rho, Initial residual = 0, Final residual = 0, No Iterations 0
PIMPLE: iteration 1
DILUPBiCG:  Solving for h, Initial residual = 0.0291625, Final residual = 3.93644e-14, No Iterations 1
DILUPBiCG:  Solving for p, Initial residual = 0.00131429, Final residual = 6.99918e-13, No Iterations 2
diagonal:  Solving for rho, Initial residual = 0, Final residual = 0, No Iterations 0
time step continuity errors : sum local = 1.05118e-13, global = -8.02968e-15, cumulative = -3.64023e-13
rho max/min : 0.83124 0.710718
ExecutionTime = 0.11 s  ClockTime = 0 s

Courant Number mean: 0.00030071 max: 0.0069626
Time = 2.2e-05

diagonal:  Solving for rho, Initial residual = 0, Final residual = 0, No Iterations 0
PIMPLE: iteration 1
DILUPBiCG:  Solving for h, Initial residual = 0.0285361, Final residual = 3.76508e-14, No Iterations 1
DILUPBiCG:  Solving for p, Initial residual = 0.00128957, Final residual = 7.36163e-13, No Iterations 2
diagonal:  Solving for rho, Initial residual = 0, Final residual = 0, No Iterations 0
time step continuity errors : sum local = 1.10306e-13, global = -5.96369e-15, cumulative = -3.69987e-13
rho max/min : 0.83124 0.710718
ExecutionTime = 0.12 s  ClockTime = 0 s

Courant Number mean: 0.000314493 max: 0.00697075
Time = 2.3e-05

diagonal:  Solving for rho, Initial residual = 0, Final residual = 0, No Iterations 0
PIMPLE: iteration 1
DILUPBiCG:  Solving for h, Initial residual = 0.0278689, Final residual = 3.87946e-14, No Iterations 1
DILUPBiCG:  Solving for p, Initial residual = 0.00132191, Final residual = 7.7476e-13, No Iterations 2
diagonal:  Solving for rho, Initial residual = 0, Final residual = 0, No Iterations 0
time step continuity errors : sum local = 1.15796e-13, global = -3.58406e-15, cumulative = -3.73571e-13
rho max/min : 0.83124 0.710718
ExecutionTime = 0.12 s  ClockTime = 0 s

Courant Number mean: 0.000328327 max: 0.00697188
Time = 2.4e-05

diagonal:  Solving for rho, Initial residual = 0, Final residual = 0, No Iterations 0
PIMPLE: iteration 1
DILUPBiCG:  Solving for h, Initial residual = 0.0270908, Final residual = 5.33048e-14, No Iterations 1
DILUPBiCG:  Solving for p, Initial residual = 0.0013459, Final residual = 7.84943e-13, No Iterations 2
diagonal:  Solving for rho, Initial residual = 0, Final residual = 0, No Iterations 0
time step continuity errors : sum local = 1.17013e-13, global = -9.36443e-16, cumulative = -3.74507e-13
rho max/min : 0.83124 0.710718
ExecutionTime = 0.12 s  ClockTime = 0 s

Courant Number mean: 0.000342265 max: 0.00696846
Time = 2.5e-05

diagonal:  Solving for rho, Initial residual = 0, Final residual = 0, No Iterations 0
PIMPLE: iteration 1
DILUPBiCG:  Solving for h, Initial residual = 0.0263327, Final residual = 4.50318e-14, No Iterations 1
DILUPBiCG:  Solving for p, Initial residual = 0.00136103, Final residual = 7.65175e-13, No Iterations 2
diagonal:  Solving for rho, Initial residual = 0, Final residual = 0, No Iterations 0
time step continuity errors : sum local = 1.13775e-13, global = 2.07996e-15, cumulative = -3.72427e-13
rho max/min : 0.83124 0.710718
ExecutionTime = 0.13 s  ClockTime = 0 s

Courant Number mean: 0.000356287 max: 0.00695936
Time = 2.6e-05

diagonal:  Solving for rho, Initial residual = 0, Final residual = 0, No Iterations 0
PIMPLE: iteration 1
DILUPBiCG:  Solving for h, Initial residual = 0.0254852, Final residual = 3.73342e-14, No Iterations 1
DILUPBiCG:  Solving for p, Initial residual = 0.00138355, Final residual = 7.14186e-13, No Iterations 2
diagonal:  Solving for rho, Initial residual = 0, Final residual = 0, No Iterations 0
time step continuity errors : sum local = 1.05952e-13, global = 5.40626e-15, cumulative = -3.67021e-13
rho max/min : 0.83124 0.710718
ExecutionTime = 0.13 s  ClockTime = 0 s

Courant Number mean: 0.00037035 max: 0.00694234
Time = 2.7e-05

diagonal:  Solving for rho, Initial residual = 0, Final residual = 0, No Iterations 0
PIMPLE: iteration 1
DILUPBiCG:  Solving for h, Initial residual = 0.0248108, Final residual = 3.18494e-14, No Iterations 1
DILUPBiCG:  Solving for p, Initial residual = 0.00139549, Final residual = 6.55314e-13, No Iterations 2
diagonal:  Solving for rho, Initial residual = 0, Final residual = 0, No Iterations 0
time step continuity errors : sum local = 9.70212e-14, global = 8.91227e-15, cumulative = -3.58109e-13
rho max/min : 0.83124 0.710718
ExecutionTime = 0.13 s  ClockTime = 0 s

Courant Number mean: 0.000384419 max: 0.00691578
Time = 2.8e-05

diagonal:  Solving for rho, Initial residual = 0, Final residual = 0, No Iterations 0
PIMPLE: iteration 1
DILUPBiCG:  Solving for h, Initial residual = 0.0240248, Final residual = 2.81602e-14, No Iterations 1
DILUPBiCG:  Solving for p, Initial residual = 0.0013986, Final residual = 5.45542e-13, No Iterations 2
diagonal:  Solving for rho, Initial residual = 0, Final residual = 0, No Iterations 0
time step continuity errors : sum local = 8.06433e-14, global = -2.26313e-15, cumulative = -3.60372e-13
rho max/min : 0.83124 0.710718
ExecutionTime = 0.13 s  ClockTime = 0 s

Courant Number mean: 0.000398651 max: 0.00689522
Time = 2.9e-05

diagonal:  Solving for rho, Initial residual = 0, Final residual = 0, No Iterations 0
PIMPLE: iteration 1
DILUPBiCG:  Solving for h, Initial residual = 0.0231945, Final residual = 2.5164e-14, No Iterations 1
DILUPBiCG:  Solving for p, Initial residual = 0.00139792, Final residual = 5.61673e-13, No Iterations 2
diagonal:  Solving for rho, Initial residual = 0, Final residual = 0, No Iterations 0
time step continuity errors : sum local = 8.28658e-14, global = 1.33259e-15, cumulative = -3.59039e-13
rho max/min : 0.83124 0.710718
ExecutionTime = 0.14 s  ClockTime = 0 s

Courant Number mean: 0.000412766 max: 0.00686678
Time = 3e-05

diagonal:  Solving for rho, Initial residual = 0, Final residual = 0, No Iterations 0
PIMPLE: iteration 1
DILUPBiCG:  Solving for h, Initial residual = 0.0223204, Final residual = 2.26771e-14, No Iterations 1
DILUPBiCG:  Solving for p, Initial residual = 0.00139116, Final residual = 5.69684e-13, No Iterations 2
diagonal:  Solving for rho, Initial residual = 0, Final residual = 0, No Iterations 0
time step continuity errors : sum local = 8.38758e-14, global = 3.81288e-15, cumulative = -3.55226e-13
rho max/min : 0.83124 0.710718
ExecutionTime = 0.14 s  ClockTime = 0 s

Courant Number mean: 0.000426765 max: 0.00682945
Time = 3.1e-05

diagonal:  Solving for rho, Initial residual = 0, Final residual = 0, No Iterations 0
PIMPLE: iteration 1
DILUPBiCG:  Solving for h, Initial residual = 0.0214165, Final residual = 2.00127e-14, No Iterations 1
DILUPBiCG:  Solving for p, Initial residual = 0.00137928, Final residual = 5.69037e-13, No Iterations 2
diagonal:  Solving for rho, Initial residual = 0, Final residual = 0, No Iterations 0
time step continuity errors : sum local = 8.36292e-14, global = 5.51771e-15, cumulative = -3.49709e-13
rho max/min : 0.83124 0.710718
ExecutionTime = 0.14 s  ClockTime = 0 s

Courant Number mean: 0.000440671 max: 0.00678344
Time = 3.2e-05

diagonal:  Solving for rho, Initial residual = 0, Final residual = 0, No Iterations 0
PIMPLE: iteration 1
DILUPBiCG:  Solving for h, Initial residual = 0.0204995, Final residual = 1.73038e-14, No Iterations 1
DILUPBiCG:  Solving for p, Initial residual = 0.0013636, Final residual = 5.58249e-13, No Iterations 2
diagonal:  Solving for rho, Initial residual = 0, Final residual = 0, No Iterations 0
time step continuity errors : sum local = 8.18713e-14, global = 6.67045e-15, cumulative = -3.43038e-13
rho max/min : 0.83124 0.710718
ExecutionTime = 0.14 s  ClockTime = 0 s

Courant Number mean: 0.000454527 max: 0.00678135
Time = 3.3e-05

diagonal:  Solving for rho, Initial residual = 0, Final residual = 0, No Iterations 0
PIMPLE: iteration 1
DILUPBiCG:  Solving for h, Initial residual = 0.019586, Final residual = 1.64431e-14, No Iterations 1
DILUPBiCG:  Solving for p, Initial residual = 0.00136707, Final residual = 5.39961e-13, No Iterations 2
diagonal:  Solving for rho, Initial residual = 0, Final residual = 0, No Iterations 0
time step continuity errors : sum local = 7.90038e-14, global = 7.49025e-15, cumulative = -3.35548e-13
rho max/min : 0.83124 0.710718
ExecutionTime = 0.15 s  ClockTime = 0 s

Courant Number mean: 0.000468372 max: 0.00677254
Time = 3.4e-05

diagonal:  Solving for rho, Initial residual = 0, Final residual = 0, No Iterations 0
PIMPLE: iteration 1
DILUPBiCG:  Solving for h, Initial residual = 0.0190369, Final residual = 1.65158e-14, No Iterations 1
DILUPBiCG:  Solving for p, Initial residual = 0.00138309, Final residual = 5.35461e-13, No Iterations 2
diagonal:  Solving for rho, Initial residual = 0, Final residual = 0, No Iterations 0
time step continuity errors : sum local = 7.81636e-14, global = 8.06784e-15, cumulative = -3.2748e-13
rho max/min : 0.83124 0.710718
ExecutionTime = 0.15 s  ClockTime = 0 s

Courant Number mean: 0.000482241 max: 0.00674947
Time = 3.5e-05

diagonal:  Solving for rho, Initial residual = 0, Final residual = 0, No Iterations 0
PIMPLE: iteration 1
DILUPBiCG:  Solving for h, Initial residual = 0.0186351, Final residual = 1.61542e-14, No Iterations 1
DILUPBiCG:  Solving for p, Initial residual = 0.00139359, Final residual = 5.4884e-13, No Iterations 2
diagonal:  Solving for rho, Initial residual = 0, Final residual = 0, No Iterations 0
time step continuity errors : sum local = 7.99145e-14, global = 8.59474e-15, cumulative = -3.18885e-13
rho max/min : 0.83124 0.710718
ExecutionTime = 0.15 s  ClockTime = 0 s

Courant Number mean: 0.000496152 max: 0.0067163
Time = 3.6e-05

diagonal:  Solving for rho, Initial residual = 0, Final residual = 0, No Iterations 0
PIMPLE: iteration 1
DILUPBiCG:  Solving for h, Initial residual = 0.0181836, Final residual = 1.55831e-14, No Iterations 1
DILUPBiCG:  Solving for p, Initial residual = 0.00139791, Final residual = 6.17644e-13, No Iterations 2
diagonal:  Solving for rho, Initial residual = 0, Final residual = 0, No Iterations 0
time step continuity errors : sum local = 8.97122e-14, global = 5.28774e-16, cumulative = -3.18357e-13
rho max/min : 0.83124 0.710718
ExecutionTime = 0.15 s  ClockTime = 0 s

Courant Number mean: 0.000510051 max: 0.00667659
Time = 3.7e-05

diagonal:  Solving for rho, Initial residual = 0, Final residual = 0, No Iterations 0
PIMPLE: iteration 1
DILUPBiCG:  Solving for h, Initial residual = 0.0176777, Final residual = 1.47858e-14, No Iterations 1
DILUPBiCG:  Solving for p, Initial residual = 0.00139526, Final residual = 6.12363e-13, No Iterations 2
diagonal:  Solving for rho, Initial residual = 0, Final residual = 0, No Iterations 0
time step continuity errors : sum local = 8.87476e-14, global = 1.5568e-15, cumulative = -3.168e-13
rho max/min : 0.83124 0.710718
ExecutionTime = 0.16 s  ClockTime = 0 s

Courant Number mean: 0.000523929 max: 0.00663192
Time = 3.8e-05

diagonal:  Solving for rho, Initial residual = 0, Final residual = 0, No Iterations 0
PIMPLE: iteration 1
DILUPBiCG:  Solving for h, Initial residual = 0.0171286, Final residual = 1.37939e-14, No Iterations 1
DILUPBiCG:  Solving for p, Initial residual = 0.00139548, Final residual = 6.1202e-13, No Iterations 2
diagonal:  Solving for rho, Initial residual = 0, Final residual = 0, No Iterations 0
time step continuity errors : sum local = 8.84925e-14, global = 3.06176e-15, cumulative = -3.13738e-13
rho max/min : 0.83124 0.710718
ExecutionTime = 0.16 s  ClockTime = 0 s

Courant Number mean: 0.000537832 max: 0.00658647
Time = 3.9e-05

diagonal:  Solving for rho, Initial residual = 0, Final residual = 0, No Iterations 0
PIMPLE: iteration 1
DILUPBiCG:  Solving for h, Initial residual = 0.016562, Final residual = 1.26719e-14, No Iterations 1
DILUPBiCG:  Solving for p, Initial residual = 0.00140277, Final residual = 6.04269e-13, No Iterations 2
diagonal:  Solving for rho, Initial residual = 0, Final residual = 0, No Iterations 0
time step continuity errors : sum local = 8.71539e-14, global = 4.68553e-15, cumulative = -3.09053e-13
rho max/min : 0.83124 0.710718
ExecutionTime = 0.16 s  ClockTime = 0 s

Courant Number mean: 0.000551754 max: 0.00663467
Time = 4e-05

diagonal:  Solving for rho, Initial residual = 0, Final residual = 0, No Iterations 0
PIMPLE: iteration 1
DILUPBiCG:  Solving for h, Initial residual = 0.0160958, Final residual = 1.18203e-14, No Iterations 1
DILUPBiCG:  Solving for p, Initial residual = 0.00141681, Final residual = 6.11351e-13, No Iterations 2
diagonal:  Solving for rho, Initial residual = 0, Final residual = 0, No Iterations 0
time step continuity errors : sum local = 8.79361e-14, global = 4.09541e-16, cumulative = -3.08643e-13
rho max/min : 0.83124 0.710718
ExecutionTime = 0.16 s  ClockTime = 0 s

Courant Number mean: 0.0005658 max: 0.00671022
Time = 4.1e-05

diagonal:  Solving for rho, Initial residual = 0, Final residual = 0, No Iterations 0
PIMPLE: iteration 1
DILUPBiCG:  Solving for h, Initial residual = 0.015743, Final residual = 9.76564e-15, No Iterations 1
DILUPBiCG:  Solving for p, Initial residual = 0.0014269, Final residual = 6.26448e-13, No Iterations 2
diagonal:  Solving for rho, Initial residual = 0, Final residual = 0, No Iterations 0
time step continuity errors : sum local = 8.98857e-14, global = 2.55128e-15, cumulative = -3.06092e-13
rho max/min : 0.83124 0.710718
ExecutionTime = 0.17 s  ClockTime = 0 s

Courant Number mean: 0.000579823 max: 0.00676251
Time = 4.2e-05

diagonal:  Solving for rho, Initial residual = 0, Final residual = 0, No Iterations 0
PIMPLE: iteration 1
DILUPBiCG:  Solving for h, Initial residual = 0.0153801, Final residual = 8.4224e-15, No Iterations 1
DILUPBiCG:  Solving for p, Initial residual = 0.00144619, Final residual = 6.27277e-13, No Iterations 2
diagonal:  Solving for rho, Initial residual = 0, Final residual = 0, No Iterations 0
time step continuity errors : sum local = 8.97759e-14, global = 4.06805e-15, cumulative = -3.02024e-13
rho max/min : 0.83124 0.710718
ExecutionTime = 0.17 s  ClockTime = 0 s

Courant Number mean: 0.00059382 max: 0.0067931
Time = 4.3e-05

diagonal:  Solving for rho, Initial residual = 0, Final residual = 0, No Iterations 0
PIMPLE: iteration 1
DILUPBiCG:  Solving for h, Initial residual = 0.0151419, Final residual = 7.82309e-15, No Iterations 1
DILUPBiCG:  Solving for p, Initial residual = 0.00147523, Final residual = 6.17096e-13, No Iterations 2
diagonal:  Solving for rho, Initial residual = 0, Final residual = 0, No Iterations 0
time step continuity errors : sum local = 8.81031e-14, global = 5.19702e-15, cumulative = -2.96827e-13
rho max/min : 0.83124 0.710718
ExecutionTime = 0.17 s  ClockTime = 0 s

Courant Number mean: 0.000607793 max: 0.00680421
Time = 4.4e-05

diagonal:  Solving for rho, Initial residual = 0, Final residual = 0, No Iterations 0
PIMPLE: iteration 1
DILUPBiCG:  Solving for h, Initial residual = 0.0150531, Final residual = 8.16411e-15, No Iterations 1
DILUPBiCG:  Solving for p, Initial residual = 0.00149493, Final residual = 6.12401e-13, No Iterations 2
diagonal:  Solving for rho, Initial residual = 0, Final residual = 0, No Iterations 0
time step continuity errors : sum local = 8.72017e-14, global = 6.12756e-15, cumulative = -2.90699e-13
rho max/min : 0.83124 0.710718
ExecutionTime = 0.17 s  ClockTime = 0 s

Courant Number mean: 0.000621745 max: 0.00679839
Time = 4.5e-05

diagonal:  Solving for rho, Initial residual = 0, Final residual = 0, No Iterations 0
PIMPLE: iteration 1
DILUPBiCG:  Solving for h, Initial residual = 0.014893, Final residual = 7.44706e-15, No Iterations 1
DILUPBiCG:  Solving for p, Initial residual = 0.00150592, Final residual = 5.8394e-13, No Iterations 2
diagonal:  Solving for rho, Initial residual = 0, Final residual = 0, No Iterations 0
time step continuity errors : sum local = 8.29469e-14, global = 7.35604e-15, cumulative = -2.83343e-13
rho max/min : 0.83124 0.710718
ExecutionTime = 0.18 s  ClockTime = 0 s

Courant Number mean: 0.000635648 max: 0.00677828
Time = 4.6e-05

diagonal:  Solving for rho, Initial residual = 0, Final residual = 0, No Iterations 0
PIMPLE: iteration 1
DILUPBiCG:  Solving for h, Initial residual = 0.0146709, Final residual = 7.24758e-15, No Iterations 1
DILUPBiCG:  Solving for p, Initial residual = 0.00150949, Final residual = 5.47596e-13, No Iterations 2
diagonal:  Solving for rho, Initial residual = 0, Final residual = 0, No Iterations 0
time step continuity errors : sum local = 7.76202e-14, global = 8.67135e-15, cumulative = -2.74672e-13
rho max/min : 0.83124 0.710718
ExecutionTime = 0.18 s  ClockTime = 0 s

Courant Number mean: 0.000649529 max: 0.00674648
Time = 4.7e-05

diagonal:  Solving for rho, Initial residual = 0, Final residual = 0, No Iterations 0
PIMPLE: iteration 1
DILUPBiCG:  Solving for h, Initial residual = 0.0144009, Final residual = 7.38105e-15, No Iterations 1
DILUPBiCG:  Solving for p, Initial residual = 0.00150727, Final residual = 5.40496e-13, No Iterations 2
diagonal:  Solving for rho, Initial residual = 0, Final residual = 0, No Iterations 0
time step continuity errors : sum local = 7.6438e-14, global = 1.03516e-14, cumulative = -2.6432e-13
rho max/min : 0.83124 0.710718
ExecutionTime = 0.18 s  ClockTime = 0 s

Courant Number mean: 0.000663392 max: 0.00670555
Time = 4.8e-05

diagonal:  Solving for rho, Initial residual = 0, Final residual = 0, No Iterations 0
PIMPLE: iteration 1
DILUPBiCG:  Solving for h, Initial residual = 0.0140939, Final residual = 7.69794e-15, No Iterations 1
DILUPBiCG:  Solving for p, Initial residual = 0.00150109, Final residual = 5.86284e-13, No Iterations 2
diagonal:  Solving for rho, Initial residual = 0, Final residual = 0, No Iterations 0
time step continuity errors : sum local = 8.27073e-14, global = 5.91919e-15, cumulative = -2.58401e-13
rho max/min : 0.83124 0.710718
ExecutionTime = 0.19 s  ClockTime = 0 s

Courant Number mean: 0.000677374 max: 0.00666507
Time = 4.9e-05

diagonal:  Solving for rho, Initial residual = 0, Final residual = 0, No Iterations 0
PIMPLE: iteration 1
DILUPBiCG:  Solving for h, Initial residual = 0.0137752, Final residual = 7.84974e-15, No Iterations 1
DILUPBiCG:  Solving for p, Initial residual = 0.00149558, Final residual = 6.32241e-13, No Iterations 2
diagonal:  Solving for rho, Initial residual = 0, Final residual = 0, No Iterations 0
time step continuity errors : sum local = 8.89663e-14, global = 8.89355e-16, cumulative = -2.57512e-13
rho max/min : 0.83124 0.710718
ExecutionTime = 0.19 s  ClockTime = 0 s

Courant Number mean: 0.000691208 max: 0.00671449
Time = 5e-05

diagonal:  Solving for rho, Initial residual = 0, Final residual = 0, No Iterations 0
PIMPLE: iteration 1
DILUPBiCG:  Solving for h, Initial residual = 0.0134354, Final residual = 7.64551e-15, No Iterations 1
DILUPBiCG:  Solving for p, Initial residual = 0.00148743, Final residual = 6.26373e-13, No Iterations 2
diagonal:  Solving for rho, Initial residual = 0, Final residual = 0, No Iterations 0
time step continuity errors : sum local = 8.78998e-14, global = 1.85244e-15, cumulative = -2.55659e-13
rho max/min : 0.83124 0.710718
ExecutionTime = 0.21 s  ClockTime = 0 s

Courant Number mean: 0.000704968 max: 0.0067611
Time = 5.1e-05

diagonal:  Solving for rho, Initial residual = 0, Final residual = 0, No Iterations 0
PIMPLE: iteration 1
DILUPBiCG:  Solving for h, Initial residual = 0.0130654, Final residual = 6.99749e-15, No Iterations 1
DILUPBiCG:  Solving for p, Initial residual = 0.00147474, Final residual = 6.30196e-13, No Iterations 2
diagonal:  Solving for rho, Initial residual = 0, Final residual = 0, No Iterations 0
time step continuity errors : sum local = 8.82065e-14, global = 1.08577e-15, cumulative = -2.54573e-13
rho max/min : 0.83124 0.710718
ExecutionTime = 0.22 s  ClockTime = 0 s

Courant Number mean: 0.000718696 max: 0.0067853
Time = 5.2e-05

diagonal:  Solving for rho, Initial residual = 0, Final residual = 0, No Iterations 0
PIMPLE: iteration 1
DILUPBiCG:  Solving for h, Initial residual = 0.0126731, Final residual = 6.54845e-15, No Iterations 1
DILUPBiCG:  Solving for p, Initial residual = 0.00148081, Final residual = 6.09834e-13, No Iterations 2
diagonal:  Solving for rho, Initial residual = 0, Final residual = 0, No Iterations 0
time step continuity errors : sum local = 8.51438e-14, global = 2.27163e-15, cumulative = -2.52302e-13
rho max/min : 0.83124 0.710718
ExecutionTime = 0.22 s  ClockTime = 0 s

Courant Number mean: 0.000732423 max: 0.00679087
Time = 5.3e-05

diagonal:  Solving for rho, Initial residual = 0, Final residual = 0, No Iterations 0
PIMPLE: iteration 1
DILUPBiCG:  Solving for h, Initial residual = 0.0124515, Final residual = 6.17237e-15, No Iterations 1
DILUPBiCG:  Solving for p, Initial residual = 0.00149214, Final residual = 5.81571e-13, No Iterations 2
diagonal:  Solving for rho, Initial residual = 0, Final residual = 0, No Iterations 0
time step continuity errors : sum local = 8.10121e-14, global = 3.02706e-15, cumulative = -2.49275e-13
rho max/min : 0.83124 0.710718
ExecutionTime = 0.22 s  ClockTime = 0 s

Courant Number mean: 0.00074613 max: 0.00677889
Time = 5.4e-05

diagonal:  Solving for rho, Initial residual = 0, Final residual = 0, No Iterations 0
PIMPLE: iteration 1
DILUPBiCG:  Solving for h, Initial residual = 0.0122845, Final residual = 5.76512e-15, No Iterations 1
DILUPBiCG:  Solving for p, Initial residual = 0.00150634, Final residual = 5.63915e-13, No Iterations 2
diagonal:  Solving for rho, Initial residual = 0, Final residual = 0, No Iterations 0
time step continuity errors : sum local = 7.83729e-14, global = 3.738e-15, cumulative = -2.45537e-13
rho max/min : 0.83124 0.710718
ExecutionTime = 0.23 s  ClockTime = 0 s

Courant Number mean: 0.000759823 max: 0.00675222
Time = 5.5e-05

diagonal:  Solving for rho, Initial residual = 0, Final residual = 0, No Iterations 0
PIMPLE: iteration 1
DILUPBiCG:  Solving for h, Initial residual = 0.0121399, Final residual = 5.38331e-15, No Iterations 1
DILUPBiCG:  Solving for p, Initial residual = 0.00151306, Final residual = 5.52215e-13, No Iterations 2
diagonal:  Solving for rho, Initial residual = 0, Final residual = 0, No Iterations 0
time step continuity errors : sum local = 7.65833e-14, global = 4.49141e-15, cumulative = -2.41045e-13
rho max/min : 0.83124 0.710718
ExecutionTime = 0.23 s  ClockTime = 0 s

Courant Number mean: 0.00077352 max: 0.00671427
Time = 5.6e-05

diagonal:  Solving for rho, Initial residual = 0, Final residual = 0, No Iterations 0
PIMPLE: iteration 1
DILUPBiCG:  Solving for h, Initial residual = 0.0119453, Final residual = 5.01142e-15, No Iterations 1
DILUPBiCG:  Solving for p, Initial residual = 0.00151482, Final residual = 5.64432e-13, No Iterations 2
diagonal:  Solving for rho, Initial residual = 0, Final residual = 0, No Iterations 0
time step continuity errors : sum local = 7.81081e-14, global = 5.36795e-15, cumulative = -2.35677e-13
rho max/min : 0.83124 0.710718
ExecutionTime = 0.23 s  ClockTime = 0 s

Courant Number mean: 0.000787237 max: 0.00666833
Time = 5.7e-05

diagonal:  Solving for rho, Initial residual = 0, Final residual = 0, No Iterations 0
PIMPLE: iteration 1
DILUPBiCG:  Solving for h, Initial residual = 0.0117107, Final residual = 4.84674e-15, No Iterations 1
DILUPBiCG:  Solving for p, Initial residual = 0.00151083, Final residual = 5.90059e-13, No Iterations 2
diagonal:  Solving for rho, Initial residual = 0, Final residual = 0, No Iterations 0
time step continuity errors : sum local = 8.14638e-14, global = 6.51723e-15, cumulative = -2.2916e-13
rho max/min : 0.83124 0.710718
ExecutionTime = 0.24 s  ClockTime = 0 s

Courant Number mean: 0.000800993 max: 0.00661737
Time = 5.8e-05

diagonal:  Solving for rho, Initial residual = 0, Final residual = 0, No Iterations 0
PIMPLE: iteration 1
DILUPBiCG:  Solving for h, Initial residual = 0.0114461, Final residual = 4.70988e-15, No Iterations 1
DILUPBiCG:  Solving for p, Initial residual = 0.00150315, Final residual = 5.99134e-13, No Iterations 2
diagonal:  Solving for rho, Initial residual = 0, Final residual = 0, No Iterations 0
time step continuity errors : sum local = 8.24974e-14, global = 2.75475e-15, cumulative = -2.26405e-13
rho max/min : 0.83124 0.710718
ExecutionTime = 0.24 s  ClockTime = 0 s

Courant Number mean: 0.000814883 max: 0.00667319
Time = 5.9e-05

diagonal:  Solving for rho, Initial residual = 0, Final residual = 0, No Iterations 0
PIMPLE: iteration 1
DILUPBiCG:  Solving for h, Initial residual = 0.011186, Final residual = 4.46553e-15, No Iterations 1
DILUPBiCG:  Solving for p, Initial residual = 0.00149503, Final residual = 6.14085e-13, No Iterations 2
diagonal:  Solving for rho, Initial residual = 0, Final residual = 0, No Iterations 0
time step continuity errors : sum local = 8.43372e-14, global = 3.76421e-15, cumulative = -2.22641e-13
rho max/min : 0.83124 0.710718
ExecutionTime = 0.24 s  ClockTime = 0 s

Courant Number mean: 0.000828821 max: 0.00672623
Time = 6e-05

diagonal:  Solving for rho, Initial residual = 0, Final residual = 0, No Iterations 0
PIMPLE: iteration 1
DILUPBiCG:  Solving for h, Initial residual = 0.0109189, Final residual = 3.90423e-15, No Iterations 1
DILUPBiCG:  Solving for p, Initial residual = 0.00148307, Final residual = 6.56463e-13, No Iterations 2
diagonal:  Solving for rho, Initial residual = 0, Final residual = 0, No Iterations 0
time step continuity errors : sum local = 8.98922e-14, global = 2.64387e-16, cumulative = -2.22377e-13
rho max/min : 0.83124 0.710718
ExecutionTime = 0.24 s  ClockTime = 0 s

Courant Number mean: 0.000842722 max: 0.00675666
Time = 6.1e-05

diagonal:  Solving for rho, Initial residual = 0, Final residual = 0, No Iterations 0
PIMPLE: iteration 1
DILUPBiCG:  Solving for h, Initial residual = 0.0106257, Final residual = 3.50089e-15, No Iterations 1
DILUPBiCG:  Solving for p, Initial residual = 0.00149038, Final residual = 6.15559e-13, No Iterations 2
diagonal:  Solving for rho, Initial residual = 0, Final residual = 0, No Iterations 0
time step continuity errors : sum local = 8.40718e-14, global = 1.25469e-15, cumulative = -2.21122e-13
rho max/min : 0.83124 0.710718
ExecutionTime = 0.25 s  ClockTime = 0 s

Courant Number mean: 0.000856613 max: 0.00676697
Time = 6.2e-05

diagonal:  Solving for rho, Initial residual = 0, Final residual = 0, No Iterations 0
PIMPLE: iteration 1
DILUPBiCG:  Solving for h, Initial residual = 0.0104555, Final residual = 3.59529e-15, No Iterations 1
DILUPBiCG:  Solving for p, Initial residual = 0.00150734, Final residual = 5.72396e-13, No Iterations 2
diagonal:  Solving for rho, Initial residual = 0, Final residual = 0, No Iterations 0
time step continuity errors : sum local = 7.79719e-14, global = 2.09134e-15, cumulative = -2.19031e-13
rho max/min : 0.83124 0.710718
ExecutionTime = 0.25 s  ClockTime = 0 s

Courant Number mean: 0.000870472 max: 0.00675974
Time = 6.3e-05

diagonal:  Solving for rho, Initial residual = 0, Final residual = 0, No Iterations 0
PIMPLE: iteration 1
DILUPBiCG:  Solving for h, Initial residual = 0.0103362, Final residual = 3.54851e-15, No Iterations 1
DILUPBiCG:  Solving for p, Initial residual = 0.00151525, Final residual = 5.58705e-13, No Iterations 2
diagonal:  Solving for rho, Initial residual = 0, Final residual = 0, No Iterations 0
time step continuity errors : sum local = 7.59169e-14, global = 2.88061e-15, cumulative = -2.1615e-13
rho max/min : 0.83124 0.710718
ExecutionTime = 0.25 s  ClockTime = 0 s

Courant Number mean: 0.000884289 max: 0.00673755
Time = 6.4e-05

diagonal:  Solving for rho, Initial residual = 0, Final residual = 0, No Iterations 0
PIMPLE: iteration 1
DILUPBiCG:  Solving for h, Initial residual = 0.0101857, Final residual = 3.46529e-15, No Iterations 1
DILUPBiCG:  Solving for p, Initial residual = 0.00152241, Final residual = 5.25056e-13, No Iterations 2
diagonal:  Solving for rho, Initial residual = 0, Final residual = 0, No Iterations 0
time step continuity errors : sum local = 7.11778e-14, global = 3.44539e-15, cumulative = -2.12705e-13
rho max/min : 0.83124 0.710718
ExecutionTime = 0.26 s  ClockTime = 0 s

Courant Number mean: 0.000898049 max: 0.00670303
Time = 6.5e-05

diagonal:  Solving for rho, Initial residual = 0, Final residual = 0, No Iterations 0
PIMPLE: iteration 1
DILUPBiCG:  Solving for h, Initial residual = 0.0100428, Final residual = 3.42531e-15, No Iterations 1
DILUPBiCG:  Solving for p, Initial residual = 0.00153136, Final residual = 5.33835e-13, No Iterations 2
diagonal:  Solving for rho, Initial residual = 0, Final residual = 0, No Iterations 0
time step continuity errors : sum local = 7.2218e-14, global = 4.68956e-15, cumulative = -2.08015e-13
rho max/min : 0.83124 0.710718
ExecutionTime = 0.26 s  ClockTime = 0 s

Courant Number mean: 0.000911777 max: 0.00665921
Time = 6.6e-05

diagonal:  Solving for rho, Initial residual = 0, Final residual = 0, No Iterations 0
PIMPLE: iteration 1
DILUPBiCG:  Solving for h, Initial residual = 0.00991291, Final residual = 3.69971e-15, No Iterations 1
DILUPBiCG:  Solving for p, Initial residual = 0.00153659, Final residual = 5.68476e-13, No Iterations 2
diagonal:  Solving for rho, Initial residual = 0, Final residual = 0, No Iterations 0
time step continuity errors : sum local = 7.67237e-14, global = 6.01106e-15, cumulative = -2.02004e-13
rho max/min : 0.83124 0.710718
ExecutionTime = 0.26 s  ClockTime = 0 s

Courant Number mean: 0.000925507 max: 0.00660914
Time = 6.7e-05

diagonal:  Solving for rho, Initial residual = 0, Final residual = 0, No Iterations 0
PIMPLE: iteration 1
DILUPBiCG:  Solving for h, Initial residual = 0.00976522, Final residual = 3.598e-15, No Iterations 1
DILUPBiCG:  Solving for p, Initial residual = 0.00153654, Final residual = 6.10222e-13, No Iterations 2
diagonal:  Solving for rho, Initial residual = 0, Final residual = 0, No Iterations 0
time step continuity errors : sum local = 8.21488e-14, global = 2.25291e-15, cumulative = -1.99751e-13
rho max/min : 0.83124 0.710718
ExecutionTime = 0.26 s  ClockTime = 0 s

Courant Number mean: 0.000939373 max: 0.00664993
Time = 6.8e-05

diagonal:  Solving for rho, Initial residual = 0, Final residual = 0, No Iterations 0
PIMPLE: iteration 1
DILUPBiCG:  Solving for h, Initial residual = 0.00960591, Final residual = 3.18287e-15, No Iterations 1
DILUPBiCG:  Solving for p, Initial residual = 0.00153447, Final residual = 6.30868e-13, No Iterations 2
diagonal:  Solving for rho, Initial residual = 0, Final residual = 0, No Iterations 0
time step continuity errors : sum local = 8.47007e-14, global = 3.59601e-15, cumulative = -1.96155e-13
rho max/min : 0.83124 0.710718
ExecutionTime = 0.27 s  ClockTime = 0 s

Courant Number mean: 0.000953266 max: 0.00670096
Time = 6.9e-05

diagonal:  Solving for rho, Initial residual = 0, Final residual = 0, No Iterations 0
PIMPLE: iteration 1
DILUPBiCG:  Solving for h, Initial residual = 0.00942598, Final residual = 3.00849e-15, No Iterations 1
DILUPBiCG:  Solving for p, Initial residual = 0.00152888, Final residual = 6.18277e-13, No Iterations 2
diagonal:  Solving for rho, Initial residual = 0, Final residual = 0, No Iterations 0
time step continuity errors : sum local = 8.27849e-14, global = 4.83443e-15, cumulative = -1.91321e-13
rho max/min : 0.83124 0.710718
ExecutionTime = 0.27 s  ClockTime = 0 s

Courant Number mean: 0.000967226 max: 0.00673213
Time = 7e-05

diagonal:  Solving for rho, Initial residual = 0, Final residual = 0, No Iterations 0
PIMPLE: iteration 1
DILUPBiCG:  Solving for h, Initial residual = 0.00922581, Final residual = 2.75012e-15, No Iterations 1
DILUPBiCG:  Solving for p, Initial residual = 0.00153801, Final residual = 6.05462e-13, No Iterations 2
diagonal:  Solving for rho, Initial residual = 0, Final residual = 0, No Iterations 0
time step continuity errors : sum local = 8.08404e-14, global = 5.5926e-15, cumulative = -1.85728e-13
rho max/min : 0.83124 0.710718
ExecutionTime = 0.27 s  ClockTime = 0 s

Courant Number mean: 0.000981208 max: 0.00674363
Time = 7.1e-05

diagonal:  Solving for rho, Initial residual = 0, Final residual = 0, No Iterations 0
PIMPLE: iteration 1
DILUPBiCG:  Solving for h, Initial residual = 0.00912083, Final residual = 2.77583e-15, No Iterations 1
DILUPBiCG:  Solving for p, Initial residual = 0.0015601, Final residual = 5.84784e-13, No Iterations 2
diagonal:  Solving for rho, Initial residual = 0, Final residual = 0, No Iterations 0
time step continuity errors : sum local = 7.78823e-14, global = 6.22188e-15, cumulative = -1.79506e-13
rho max/min : 0.83124 0.710718
ExecutionTime = 0.27 s  ClockTime = 0 s

Courant Number mean: 0.000995202 max: 0.00673789
Time = 7.2e-05

diagonal:  Solving for rho, Initial residual = 0, Final residual = 0, No Iterations 0
PIMPLE: iteration 1
DILUPBiCG:  Solving for h, Initial residual = 0.00909722, Final residual = 2.86488e-15, No Iterations 1
DILUPBiCG:  Solving for p, Initial residual = 0.00157369, Final residual = 6.04279e-13, No Iterations 2
diagonal:  Solving for rho, Initial residual = 0, Final residual = 0, No Iterations 0
time step continuity errors : sum local = 8.0237e-14, global = 2.22238e-15, cumulative = -1.77284e-13
rho max/min : 0.83124 0.710718
ExecutionTime = 0.28 s  ClockTime = 0 s

Courant Number mean: 0.00100913 max: 0.00671739
Time = 7.3e-05

diagonal:  Solving for rho, Initial residual = 0, Final residual = 0, No Iterations 0
PIMPLE: iteration 1
DILUPBiCG:  Solving for h, Initial residual = 0.00902461, Final residual = 2.80095e-15, No Iterations 1
DILUPBiCG:  Solving for p, Initial residual = 0.00157682, Final residual = 5.76886e-13, No Iterations 2
diagonal:  Solving for rho, Initial residual = 0, Final residual = 0, No Iterations 0
time step continuity errors : sum local = 7.64052e-14, global = 3.002e-15, cumulative = -1.74282e-13
rho max/min : 0.83124 0.710718
ExecutionTime = 0.28 s  ClockTime = 0 s

Courant Number mean: 0.00102299 max: 0.00668467
Time = 7.4e-05

diagonal:  Solving for rho, Initial residual = 0, Final residual = 0, No Iterations 0
PIMPLE: iteration 1
DILUPBiCG:  Solving for h, Initial residual = 0.0089023, Final residual = 2.81434e-15, No Iterations 1
DILUPBiCG:  Solving for p, Initial residual = 0.0015712, Final residual = 5.62619e-13, No Iterations 2
diagonal:  Solving for rho, Initial residual = 0, Final residual = 0, No Iterations 0
time step continuity errors : sum local = 7.43706e-14, global = 3.5194e-15, cumulative = -1.70762e-13
rho max/min : 0.83124 0.710718
ExecutionTime = 0.28 s  ClockTime = 0 s

Courant Number mean: 0.00103678 max: 0.00664249
Time = 7.5e-05

diagonal:  Solving for rho, Initial residual = 0, Final residual = 0, No Iterations 0
PIMPLE: iteration 1
DILUPBiCG:  Solving for h, Initial residual = 0.00874263, Final residual = 2.67167e-15, No Iterations 1
DILUPBiCG:  Solving for p, Initial residual = 0.0015616, Final residual = 5.67551e-13, No Iterations 2
diagonal:  Solving for rho, Initial residual = 0, Final residual = 0, No Iterations 0
time step continuity errors : sum local = 7.48331e-14, global = 5.35024e-15, cumulative = -1.65412e-13
rho max/min : 0.83124 0.710718
ExecutionTime = 0.28 s  ClockTime = 0 s

Courant Number mean: 0.00105055 max: 0.00659387
Time = 7.6e-05

diagonal:  Solving for rho, Initial residual = 0, Final residual = 0, No Iterations 0
PIMPLE: iteration 1
DILUPBiCG:  Solving for h, Initial residual = 0.00855304, Final residual = 2.58796e-15, No Iterations 1
DILUPBiCG:  Solving for p, Initial residual = 0.00155297, Final residual = 5.86568e-13, No Iterations 2
diagonal:  Solving for rho, Initial residual = 0, Final residual = 0, No Iterations 0
time step continuity errors : sum local = 7.71485e-14, global = 2.41563e-15, cumulative = -1.62997e-13
rho max/min : 0.83124 0.710718
ExecutionTime = 0.29 s  ClockTime = 0 s

Courant Number mean: 0.00106439 max: 0.00662952
Time = 7.7e-05

diagonal:  Solving for rho, Initial residual = 0, Final residual = 0, No Iterations 0
PIMPLE: iteration 1
DILUPBiCG:  Solving for h, Initial residual = 0.00838788, Final residual = 2.26198e-15, No Iterations 1
DILUPBiCG:  Solving for p, Initial residual = 0.00154968, Final residual = 5.85741e-13, No Iterations 2
diagonal:  Solving for rho, Initial residual = 0, Final residual = 0, No Iterations 0
time step continuity errors : sum local = 7.68519e-14, global = 3.00287e-15, cumulative = -1.59994e-13
rho max/min : 0.83124 0.710718
ExecutionTime = 0.29 s  ClockTime = 0 s

Courant Number mean: 0.00107825 max: 0.00667962
Time = 7.8e-05

diagonal:  Solving for rho, Initial residual = 0, Final residual = 0, No Iterations 0
PIMPLE: iteration 1
DILUPBiCG:  Solving for h, Initial residual = 0.00824058, Final residual = 2.07222e-15, No Iterations 1
DILUPBiCG:  Solving for p, Initial residual = 0.00154175, Final residual = 6.0474e-13, No Iterations 2
diagonal:  Solving for rho, Initial residual = 0, Final residual = 0, No Iterations 0
time step continuity errors : sum local = 7.91164e-14, global = 4.39882e-15, cumulative = -1.55595e-13
rho max/min : 0.83124 0.710718
ExecutionTime = 0.29 s  ClockTime = 0 s

Courant Number mean: 0.00109214 max: 0.00671037
Time = 7.9e-05

diagonal:  Solving for rho, Initial residual = 0, Final residual = 0, No Iterations 0
PIMPLE: iteration 1
DILUPBiCG:  Solving for h, Initial residual = 0.00808212, Final residual = 2.03414e-15, No Iterations 1
DILUPBiCG:  Solving for p, Initial residual = 0.00155207, Final residual = 6.07788e-13, No Iterations 2
diagonal:  Solving for rho, Initial residual = 0, Final residual = 0, No Iterations 0
time step continuity errors : sum local = 7.92989e-14, global = 5.104e-15, cumulative = -1.50491e-13
rho max/min : 0.83124 0.710718
ExecutionTime = 0.29 s  ClockTime = 0 s

Courant Number mean: 0.00110605 max: 0.00672195
Time = 8e-05

diagonal:  Solving for rho, Initial residual = 0, Final residual = 0, No Iterations 0
PIMPLE: iteration 1
DILUPBiCG:  Solving for h, Initial residual = 0.00802103, Final residual = 2.08459e-15, No Iterations 1
DILUPBiCG:  Solving for p, Initial residual = 0.00157931, Final residual = 5.87805e-13, No Iterations 2
diagonal:  Solving for rho, Initial residual = 0, Final residual = 0, No Iterations 0
time step continuity errors : sum local = 7.65052e-14, global = 5.69008e-15, cumulative = -1.44801e-13
rho max/min : 0.83124 0.710718
ExecutionTime = 0.3 s  ClockTime = 0 s

Courant Number mean: 0.00111997 max: 0.00671671
Time = 8.1e-05

diagonal:  Solving for rho, Initial residual = 0, Final residual = 0, No Iterations 0
PIMPLE: iteration 1
DILUPBiCG:  Solving for h, Initial residual = 0.00804316, Final residual = 2.34392e-15, No Iterations 1
DILUPBiCG:  Solving for p, Initial residual = 0.00159685, Final residual = 5.88638e-13, No Iterations 2
diagonal:  Solving for rho, Initial residual = 0, Final residual = 0, No Iterations 0
time step continuity errors : sum local = 7.63805e-14, global = 6.2946e-15, cumulative = -1.38506e-13
rho max/min : 0.83124 0.710718
ExecutionTime = 0.3 s  ClockTime = 0 s

Courant Number mean: 0.00113391 max: 0.00669707
Time = 8.2e-05

diagonal:  Solving for rho, Initial residual = 0, Final residual = 0, No Iterations 0
PIMPLE: iteration 1
DILUPBiCG:  Solving for h, Initial residual = 0.00801694, Final residual = 2.36699e-15, No Iterations 1
DILUPBiCG:  Solving for p, Initial residual = 0.00160612, Final residual = 5.86747e-13, No Iterations 2
diagonal:  Solving for rho, Initial residual = 0, Final residual = 0, No Iterations 0
time step continuity errors : sum local = 7.59385e-14, global = 7.00136e-15, cumulative = -1.31505e-13
rho max/min : 0.83124 0.710718
ExecutionTime = 0.3 s  ClockTime = 0 s

Courant Number mean: 0.00114784 max: 0.00666545
Time = 8.3e-05

diagonal:  Solving for rho, Initial residual = 0, Final residual = 0, No Iterations 0
PIMPLE: iteration 1
DILUPBiCG:  Solving for h, Initial residual = 0.00795745, Final residual = 2.33082e-15, No Iterations 1
DILUPBiCG:  Solving for p, Initial residual = 0.00160956, Final residual = 6.31798e-13, No Iterations 2
diagonal:  Solving for rho, Initial residual = 0, Final residual = 0, No Iterations 0
time step continuity errors : sum local = 8.1547e-14, global = 3.68385e-15, cumulative = -1.27821e-13
rho max/min : 0.83124 0.710718
ExecutionTime = 0.31 s  ClockTime = 0 s

Courant Number mean: 0.00116173 max: 0.00662446
Time = 8.4e-05

diagonal:  Solving for rho, Initial residual = 0, Final residual = 0, No Iterations 0
PIMPLE: iteration 1
DILUPBiCG:  Solving for h, Initial residual = 0.00786204, Final residual = 2.36976e-15, No Iterations 1
DILUPBiCG:  Solving for p, Initial residual = 0.00160453, Final residual = 6.38413e-13, No Iterations 2
diagonal:  Solving for rho, Initial residual = 0, Final residual = 0, No Iterations 0
time step continuity errors : sum local = 8.2195e-14, global = 4.86409e-15, cumulative = -1.22957e-13
rho max/min : 0.83124 0.710718
ExecutionTime = 0.32 s  ClockTime = 0 s

Courant Number mean: 0.00117559 max: 0.00657699
Time = 8.5e-05

diagonal:  Solving for rho, Initial residual = 0, Final residual = 0, No Iterations 0
PIMPLE: iteration 1
DILUPBiCG:  Solving for h, Initial residual = 0.00772131, Final residual = 2.2481e-15, No Iterations 1
DILUPBiCG:  Solving for p, Initial residual = 0.00159417, Final residual = 6.37544e-13, No Iterations 2
diagonal:  Solving for rho, Initial residual = 0, Final residual = 0, No Iterations 0
time step continuity errors : sum local = 8.18719e-14, global = 2.37459e-15, cumulative = -1.20582e-13
rho max/min : 0.83124 0.710718
ExecutionTime = 0.32 s  ClockTime = 0 s

Courant Number mean: 0.00118951 max: 0.006613
Time = 8.6e-05

diagonal:  Solving for rho, Initial residual = 0, Final residual = 0, No Iterations 0
PIMPLE: iteration 1
DILUPBiCG:  Solving for h, Initial residual = 0.00757269, Final residual = 1.95788e-15, No Iterations 1
DILUPBiCG:  Solving for p, Initial residual = 0.00158205, Final residual = 6.1085e-13, No Iterations 2
diagonal:  Solving for rho, Initial residual = 0, Final residual = 0, No Iterations 0
time step continuity errors : sum local = 7.82379e-14, global = 2.58224e-15, cumulative = -1.18e-13
rho max/min : 0.83124 0.710718
ExecutionTime = 0.32 s  ClockTime = 0 s

Courant Number mean: 0.0012034 max: 0.00666116
Time = 8.7e-05

diagonal:  Solving for rho, Initial residual = 0, Final residual = 0, No Iterations 0
PIMPLE: iteration 1
DILUPBiCG:  Solving for h, Initial residual = 0.00741171, Final residual = 1.81217e-15, No Iterations 1
DILUPBiCG:  Solving for p, Initial residual = 0.00156866, Final residual = 5.96018e-13, No Iterations 2
diagonal:  Solving for rho, Initial residual = 0, Final residual = 0, No Iterations 0
time step continuity errors : sum local = 7.61304e-14, global = 3.93254e-15, cumulative = -1.14068e-13
rho max/min : 0.83124 0.710718
ExecutionTime = 0.33 s  ClockTime = 0 s

Courant Number mean: 0.00121731 max: 0.00669056
Time = 8.8e-05

diagonal:  Solving for rho, Initial residual = 0, Final residual = 0, No Iterations 0
PIMPLE: iteration 1
DILUPBiCG:  Solving for h, Initial residual = 0.00724732, Final residual = 1.69265e-15, No Iterations 1
DILUPBiCG:  Solving for p, Initial residual = 0.00157794, Final residual = 5.68161e-13, No Iterations 2
diagonal:  Solving for rho, Initial residual = 0, Final residual = 0, No Iterations 0
time step continuity errors : sum local = 7.23888e-14, global = 4.61756e-15, cumulative = -1.0945e-13
rho max/min : 0.83124 0.710718
ExecutionTime = 0.33 s  ClockTime = 0 s

Courant Number mean: 0.00123119 max: 0.00670141
Time = 8.9e-05

diagonal:  Solving for rho, Initial residual = 0, Final residual = 0, No Iterations 0
PIMPLE: iteration 1
DILUPBiCG:  Solving for h, Initial residual = 0.00718569, Final residual = 1.78794e-15, No Iterations 1
DILUPBiCG:  Solving for p, Initial residual = 0.0016003, Final residual = 5.4107e-13, No Iterations 2
diagonal:  Solving for rho, Initial residual = 0, Final residual = 0, No Iterations 0
time step continuity errors : sum local = 6.87607e-14, global = 5.27234e-15, cumulative = -1.04178e-13
rho max/min : 0.83124 0.710718
ExecutionTime = 0.33 s  ClockTime = 0 s

Courant Number mean: 0.00124507 max: 0.00669595
Time = 9e-05

diagonal:  Solving for rho, Initial residual = 0, Final residual = 0, No Iterations 0
PIMPLE: iteration 1
DILUPBiCG:  Solving for h, Initial residual = 0.00718494, Final residual = 1.81355e-15, No Iterations 1
DILUPBiCG:  Solving for p, Initial residual = 0.00161771, Final residual = 5.543e-13, No Iterations 2
diagonal:  Solving for rho, Initial residual = 0, Final residual = 0, No Iterations 0
time step continuity errors : sum local = 7.02393e-14, global = 5.7821e-15, cumulative = -9.83955e-14
rho max/min : 0.83124 0.710718
ExecutionTime = 0.33 s  ClockTime = 0 s

Courant Number mean: 0.00125896 max: 0.00667654
Time = 9.1e-05

diagonal:  Solving for rho, Initial residual = 0, Final residual = 0, No Iterations 0
PIMPLE: iteration 1
DILUPBiCG:  Solving for h, Initial residual = 0.00716052, Final residual = 1.83431e-15, No Iterations 1
DILUPBiCG:  Solving for p, Initial residual = 0.00163038, Final residual = 5.68567e-13, No Iterations 2
diagonal:  Solving for rho, Initial residual = 0, Final residual = 0, No Iterations 0
time step continuity errors : sum local = 7.18528e-14, global = 6.46712e-15, cumulative = -9.19284e-14
rho max/min : 0.83124 0.710718
ExecutionTime = 0.34 s  ClockTime = 0 s

Courant Number mean: 0.00127284 max: 0.00664553
Time = 9.2e-05

diagonal:  Solving for rho, Initial residual = 0, Final residual = 0, No Iterations 0
PIMPLE: iteration 1
DILUPBiCG:  Solving for h, Initial residual = 0.00710809, Final residual = 1.89444e-15, No Iterations 1
DILUPBiCG:  Solving for p, Initial residual = 0.00163598, Final residual = 5.97326e-13, No Iterations 2
diagonal:  Solving for rho, Initial residual = 0, Final residual = 0, No Iterations 0
time step continuity errors : sum local = 7.52831e-14, global = 7.38023e-15, cumulative = -8.45482e-14
rho max/min : 0.83124 0.710718
ExecutionTime = 0.34 s  ClockTime = 0 s

Courant Number mean: 0.00128671 max: 0.00660541
Time = 9.3e-05

diagonal:  Solving for rho, Initial residual = 0, Final residual = 0, No Iterations 0
PIMPLE: iteration 1
DILUPBiCG:  Solving for h, Initial residual = 0.00702791, Final residual = 1.7585e-15, No Iterations 1
DILUPBiCG:  Solving for p, Initial residual = 0.00163593, Final residual = 6.25521e-13, No Iterations 2
diagonal:  Solving for rho, Initial residual = 0, Final residual = 0, No Iterations 0
time step continuity errors : sum local = 7.86213e-14, global = 8.45909e-15, cumulative = -7.60891e-14
rho max/min : 0.83124 0.710718
ExecutionTime = 0.34 s  ClockTime = 0 s

Courant Number mean: 0.00130059 max: 0.00655894
Time = 9.4e-05

diagonal:  Solving for rho, Initial residual = 0, Final residual = 0, No Iterations 0
PIMPLE: iteration 1
DILUPBiCG:  Solving for h, Initial residual = 0.00693213, Final residual = 1.77323e-15, No Iterations 1
DILUPBiCG:  Solving for p, Initial residual = 0.00163361, Final residual = 6.31744e-13, No Iterations 2
diagonal:  Solving for rho, Initial residual = 0, Final residual = 0, No Iterations 0
time step continuity errors : sum local = 7.91868e-14, global = 6.14196e-15, cumulative = -6.99471e-14
rho max/min : 0.83124 0.710718
ExecutionTime = 0.34 s  ClockTime = 0 s

Courant Number mean: 0.00131456 max: 0.00659883
Time = 9.5e-05

diagonal:  Solving for rho, Initial residual = 0, Final residual = 0, No Iterations 0
PIMPLE: iteration 1
DILUPBiCG:  Solving for h, Initial residual = 0.00682834, Final residual = 1.63058e-15, No Iterations 1
DILUPBiCG:  Solving for p, Initial residual = 0.00162831, Final residual = 6.41983e-13, No Iterations 2
diagonal:  Solving for rho, Initial residual = 0, Final residual = 0, No Iterations 0
time step continuity errors : sum local = 8.02388e-14, global = 2.99336e-15, cumulative = -6.69538e-14
rho max/min : 0.83124 0.710718
ExecutionTime = 0.35 s  ClockTime = 0 s

Courant Number mean: 0.00132855 max: 0.00664622
Time = 9.6e-05

diagonal:  Solving for rho, Initial residual = 0, Final residual = 0, No Iterations 0
PIMPLE: iteration 1
DILUPBiCG:  Solving for h, Initial residual = 0.00670383, Final residual = 1.54729e-15, No Iterations 1
DILUPBiCG:  Solving for p, Initial residual = 0.0016159, Final residual = 6.20687e-13, No Iterations 2
diagonal:  Solving for rho, Initial residual = 0, Final residual = 0, No Iterations 0
time step continuity errors : sum local = 7.73649e-14, global = 3.43819e-15, cumulative = -6.35156e-14
rho max/min : 0.83124 0.710718
ExecutionTime = 0.35 s  ClockTime = 0 s

Courant Number mean: 0.00134253 max: 0.00667364
Time = 9.7e-05

diagonal:  Solving for rho, Initial residual = 0, Final residual = 0, No Iterations 0
PIMPLE: iteration 1
DILUPBiCG:  Solving for h, Initial residual = 0.00655973, Final residual = 1.46284e-15, No Iterations 1
DILUPBiCG:  Solving for p, Initial residual = 0.00162088, Final residual = 5.92432e-13, No Iterations 2
diagonal:  Solving for rho, Initial residual = 0, Final residual = 0, No Iterations 0
time step continuity errors : sum local = 7.36707e-14, global = 3.55137e-15, cumulative = -5.99642e-14
rho max/min : 0.83124 0.710718
ExecutionTime = 0.35 s  ClockTime = 0 s

Courant Number mean: 0.00135647 max: 0.00668316
Time = 9.8e-05

diagonal:  Solving for rho, Initial residual = 0, Final residual = 0, No Iterations 0
PIMPLE: iteration 1
DILUPBiCG:  Solving for h, Initial residual = 0.00649208, Final residual = 1.44433e-15, No Iterations 1
DILUPBiCG:  Solving for p, Initial residual = 0.00163488, Final residual = 5.88801e-13, No Iterations 2
diagonal:  Solving for rho, Initial residual = 0, Final residual = 0, No Iterations 0
time step continuity errors : sum local = 7.30106e-14, global = 4.26476e-15, cumulative = -5.56994e-14
rho max/min : 0.83124 0.710718
ExecutionTime = 0.35 s  ClockTime = 0 s

Courant Number mean: 0.00137037 max: 0.00667696
Time = 9.9e-05

diagonal:  Solving for rho, Initial residual = 0, Final residual = 0, No Iterations 0
PIMPLE: iteration 1
DILUPBiCG:  Solving for h, Initial residual = 0.00646061, Final residual = 1.46864e-15, No Iterations 1
DILUPBiCG:  Solving for p, Initial residual = 0.00164956, Final residual = 5.61788e-13, No Iterations 2
diagonal:  Solving for rho, Initial residual = 0, Final residual = 0, No Iterations 0
time step continuity errors : sum local = 6.94731e-14, global = 4.9695e-15, cumulative = -5.07299e-14
rho max/min : 0.83124 0.710718
ExecutionTime = 0.36 s  ClockTime = 0 s

Courant Number mean: 0.00138425 max: 0.00665733
Time = 0.0001

diagonal:  Solving for rho, Initial residual = 0, Final residual = 0, No Iterations 0
PIMPLE: iteration 1
DILUPBiCG:  Solving for h, Initial residual = 0.00642751, Final residual = 1.40321e-15, No Iterations 1
DILUPBiCG:  Solving for p, Initial residual = 0.00165651, Final residual = 5.47997e-13, No Iterations 2
diagonal:  Solving for rho, Initial residual = 0, Final residual = 0, No Iterations 0
time step continuity errors : sum local = 6.7582e-14, global = 6.10164e-15, cumulative = -4.46283e-14
rho max/min : 0.83124 0.710718
ExecutionTime = 0.37 s  ClockTime = 0 s

Courant Number mean: 0.00139809 max: 0.00662656
Time = 0.000101

diagonal:  Solving for rho, Initial residual = 0, Final residual = 0, No Iterations 0
PIMPLE: iteration 1
DILUPBiCG:  Solving for h, Initial residual = 0.00636563, Final residual = 1.377e-15, No Iterations 1
DILUPBiCG:  Solving for p, Initial residual = 0.00165588, Final residual = 5.54214e-13, No Iterations 2
diagonal:  Solving for rho, Initial residual = 0, Final residual = 0, No Iterations 0
time step continuity errors : sum local = 6.81687e-14, global = 7.04543e-15, cumulative = -3.75829e-14
rho max/min : 0.83124 0.710718
ExecutionTime = 0.38 s  ClockTime = 0 s

Courant Number mean: 0.00141192 max: 0.00658701
Time = 0.000102

diagonal:  Solving for rho, Initial residual = 0, Final residual = 0, No Iterations 0
PIMPLE: iteration 1
DILUPBiCG:  Solving for h, Initial residual = 0.00628298, Final residual = 1.33297e-15, No Iterations 1
DILUPBiCG:  Solving for p, Initial residual = 0.00165452, Final residual = 5.89213e-13, No Iterations 2
diagonal:  Solving for rho, Initial residual = 0, Final residual = 0, No Iterations 0
time step continuity errors : sum local = 7.22686e-14, global = 8.1685e-15, cumulative = -2.94144e-14
rho max/min : 0.83124 0.710718
ExecutionTime = 0.38 s  ClockTime = 0 s

Courant Number mean: 0.00142574 max: 0.00654136
Time = 0.000103

diagonal:  Solving for rho, Initial residual = 0, Final residual = 0, No Iterations 0
PIMPLE: iteration 1
DILUPBiCG:  Solving for h, Initial residual = 0.00619909, Final residual = 1.28102e-15, No Iterations 1
DILUPBiCG:  Solving for p, Initial residual = 0.00165374, Final residual = 6.16862e-13, No Iterations 2
diagonal:  Solving for rho, Initial residual = 0, Final residual = 0, No Iterations 0
time step continuity errors : sum local = 7.54406e-14, global = 5.86217e-15, cumulative = -2.35522e-14
rho max/min : 0.83124 0.710718
ExecutionTime = 0.39 s  ClockTime = 0 s

Courant Number mean: 0.00143964 max: 0.00658741
Time = 0.000104

diagonal:  Solving for rho, Initial residual = 0, Final residual = 0, No Iterations 0
PIMPLE: iteration 1
DILUPBiCG:  Solving for h, Initial residual = 0.00612404, Final residual = 1.22334e-15, No Iterations 1
DILUPBiCG:  Solving for p, Initial residual = 0.00165339, Final residual = 6.28317e-13, No Iterations 2
diagonal:  Solving for rho, Initial residual = 0, Final residual = 0, No Iterations 0
time step continuity errors : sum local = 7.66108e-14, global = 6.7256e-15, cumulative = -1.68266e-14
rho max/min : 0.83124 0.710718
ExecutionTime = 0.39 s  ClockTime = 0 s

Courant Number mean: 0.00145359 max: 0.00663179
Time = 0.000105

diagonal:  Solving for rho, Initial residual = 0, Final residual = 0, No Iterations 0
PIMPLE: iteration 1
DILUPBiCG:  Solving for h, Initial residual = 0.00604155, Final residual = 1.19931e-15, No Iterations 1
DILUPBiCG:  Solving for p, Initial residual = 0.00164922, Final residual = 6.18398e-13, No Iterations 2
diagonal:  Solving for rho, Initial residual = 0, Final residual = 0, No Iterations 0
time step continuity errors : sum local = 7.51876e-14, global = 6.90517e-15, cumulative = -9.92143e-15
rho max/min : 0.83124 0.710718
ExecutionTime = 0.4 s  ClockTime = 0 s

Courant Number mean: 0.00146756 max: 0.00665691
Time = 0.000106

diagonal:  Solving for rho, Initial residual = 0, Final residual = 0, No Iterations 0
PIMPLE: iteration 1
DILUPBiCG:  Solving for h, Initial residual = 0.00594865, Final residual = 1.18492e-15, No Iterations 1
DILUPBiCG:  Solving for p, Initial residual = 0.00166603, Final residual = 6.33902e-13, No Iterations 2
diagonal:  Solving for rho, Initial residual = 0, Final residual = 0, No Iterations 0
time step continuity errors : sum local = 7.68529e-14, global = 3.85723e-15, cumulative = -6.0642e-15
rho max/min : 0.83124 0.710718
ExecutionTime = 0.4 s  ClockTime = 0 s

Courant Number mean: 0.00148152 max: 0.00666477
Time = 0.000107

diagonal:  Solving for rho, Initial residual = 0, Final residual = 0, No Iterations 0
PIMPLE: iteration 1
DILUPBiCG:  Solving for h, Initial residual = 0.0059266, Final residual = 1.19664e-15, No Iterations 1
DILUPBiCG:  Solving for p, Initial residual = 0.00168387, Final residual = 6.18149e-13, No Iterations 2
diagonal:  Solving for rho, Initial residual = 0, Final residual = 0, No Iterations 0
time step continuity errors : sum local = 7.47411e-14, global = 4.02989e-15, cumulative = -2.03431e-15
rho max/min : 0.83124 0.710718
ExecutionTime = 0.4 s  ClockTime = 0 s

Courant Number mean: 0.00149547 max: 0.00665754
Time = 0.000108

diagonal:  Solving for rho, Initial residual = 0, Final residual = 0, No Iterations 0
PIMPLE: iteration 1
DILUPBiCG:  Solving for h, Initial residual = 0.0059131, Final residual = 1.17059e-15, No Iterations 1
DILUPBiCG:  Solving for p, Initial residual = 0.00169049, Final residual = 5.88722e-13, No Iterations 2
diagonal:  Solving for rho, Initial residual = 0, Final residual = 0, No Iterations 0
time step continuity errors : sum local = 7.09808e-14, global = 4.69359e-15, cumulative = 2.65928e-15
rho max/min : 0.83124 0.710718
ExecutionTime = 0.4 s  ClockTime = 0 s

Courant Number mean: 0.00150941 max: 0.00663743
Time = 0.000109

diagonal:  Solving for rho, Initial residual = 0, Final residual = 0, No Iterations 0
PIMPLE: iteration 1
DILUPBiCG:  Solving for h, Initial residual = 0.00586305, Final residual = 1.1223e-15, No Iterations 1
DILUPBiCG:  Solving for p, Initial residual = 0.00169102, Final residual = 5.80577e-13, No Iterations 2
diagonal:  Solving for rho, Initial residual = 0, Final residual = 0, No Iterations 0
time step continuity errors : sum local = 6.98064e-14, global = 5.39503e-15, cumulative = 8.05431e-15
rho max/min : 0.83124 0.710718
ExecutionTime = 0.41 s  ClockTime = 0 s

Courant Number mean: 0.00152331 max: 0.00660669
Time = 0.00011

diagonal:  Solving for rho, Initial residual = 0, Final residual = 0, No Iterations 0
PIMPLE: iteration 1
DILUPBiCG:  Solving for h, Initial residual = 0.00578908, Final residual = 1.05474e-15, No Iterations 1
DILUPBiCG:  Solving for p, Initial residual = 0.00169147, Final residual = 5.80794e-13, No Iterations 2
diagonal:  Solving for rho, Initial residual = 0, Final residual = 0, No Iterations 0
time step continuity errors : sum local = 6.96559e-14, global = 6.3738e-15, cumulative = 1.44281e-14
rho max/min : 0.83124 0.710718
ExecutionTime = 0.41 s  ClockTime = 0 s

Courant Number mean: 0.00153717 max: 0.00656762
Time = 0.000111

diagonal:  Solving for rho, Initial residual = 0, Final residual = 0, No Iterations 0
PIMPLE: iteration 1
DILUPBiCG:  Solving for h, Initial residual = 0.00571701, Final residual = 1.05655e-15, No Iterations 1
DILUPBiCG:  Solving for p, Initial residual = 0.00168839, Final residual = 6.04045e-13, No Iterations 2
diagonal:  Solving for rho, Initial residual = 0, Final residual = 0, No Iterations 0
time step continuity errors : sum local = 7.22465e-14, global = 2.43449e-15, cumulative = 1.68626e-14
rho max/min : 0.83124 0.710718
ExecutionTime = 0.41 s  ClockTime = 0 s

Courant Number mean: 0.00155109 max: 0.00652762
Time = 0.000112

diagonal:  Solving for rho, Initial residual = 0, Final residual = 0, No Iterations 0
PIMPLE: iteration 1
DILUPBiCG:  Solving for h, Initial residual = 0.00564439, Final residual = 1.01096e-15, No Iterations 1
DILUPBiCG:  Solving for p, Initial residual = 0.0016859, Final residual = 6.03429e-13, No Iterations 2
diagonal:  Solving for rho, Initial residual = 0, Final residual = 0, No Iterations 0
time step continuity errors : sum local = 7.19574e-14, global = 5.62212e-15, cumulative = 2.24847e-14
rho max/min : 0.83124 0.710718
ExecutionTime = 0.42 s  ClockTime = 0 s

Courant Number mean: 0.00156498 max: 0.00658178
Time = 0.000113

diagonal:  Solving for rho, Initial residual = 0, Final residual = 0, No Iterations 0
PIMPLE: iteration 1
DILUPBiCG:  Solving for h, Initial residual = 0.00557281, Final residual = 9.76191e-16, No Iterations 1
DILUPBiCG:  Solving for p, Initial residual = 0.0016818, Final residual = 5.97699e-13, No Iterations 2
diagonal:  Solving for rho, Initial residual = 0, Final residual = 0, No Iterations 0
time step continuity errors : sum local = 7.10654e-14, global = 6.38187e-15, cumulative = 2.88666e-14
rho max/min : 0.83124 0.710718
ExecutionTime = 0.42 s  ClockTime = 0 s

Courant Number mean: 0.0015789 max: 0.00662251
Time = 0.000114

diagonal:  Solving for rho, Initial residual = 0, Final residual = 0, No Iterations 0
PIMPLE: iteration 1
DILUPBiCG:  Solving for h, Initial residual = 0.00549138, Final residual = 9.60522e-16, No Iterations 1
DILUPBiCG:  Solving for p, Initial residual = 0.00167539, Final residual = 5.82583e-13, No Iterations 2
diagonal:  Solving for rho, Initial residual = 0, Final residual = 0, No Iterations 0
time step continuity errors : sum local = 6.907e-14, global = 6.47792e-15, cumulative = 3.53445e-14
rho max/min : 0.83124 0.710718
ExecutionTime = 0.42 s  ClockTime = 0 s

Courant Number mean: 0.00159281 max: 0.00664462
Time = 0.000115

diagonal:  Solving for rho, Initial residual = 0, Final residual = 0, No Iterations 0
PIMPLE: iteration 1
DILUPBiCG:  Solving for h, Initial residual = 0.00540024, Final residual = 9.18684e-16, No Iterations 1
DILUPBiCG:  Solving for p, Initial residual = 0.00169681, Final residual = 5.80323e-13, No Iterations 2
diagonal:  Solving for rho, Initial residual = 0, Final residual = 0, No Iterations 0
time step continuity errors : sum local = 6.85931e-14, global = 6.62854e-15, cumulative = 4.19731e-14
rho max/min : 0.83124 0.710718
ExecutionTime = 0.43 s  ClockTime = 0 s

Courant Number mean: 0.00160676 max: 0.00665011
Time = 0.000116

diagonal:  Solving for rho, Initial residual = 0, Final residual = 0, No Iterations 0
PIMPLE: iteration 1
DILUPBiCG:  Solving for h, Initial residual = 0.00540277, Final residual = 9.14087e-16, No Iterations 1
DILUPBiCG:  Solving for p, Initial residual = 0.00172041, Final residual = 5.92543e-13, No Iterations 2
diagonal:  Solving for rho, Initial residual = 0, Final residual = 0, No Iterations 0
time step continuity errors : sum local = 6.98295e-14, global = 6.50038e-15, cumulative = 4.84734e-14
rho max/min : 0.83124 0.710718
ExecutionTime = 0.43 s  ClockTime = 0 s

Courant Number mean: 0.00162074 max: 0.0066411
Time = 0.000117

diagonal:  Solving for rho, Initial residual = 0, Final residual = 0, No Iterations 0
PIMPLE: iteration 1
DILUPBiCG:  Solving for h, Initial residual = 0.00541315, Final residual = 9.10675e-16, No Iterations 1
DILUPBiCG:  Solving for p, Initial residual = 0.00173552, Final residual = 6.16551e-13, No Iterations 2
diagonal:  Solving for rho, Initial residual = 0, Final residual = 0, No Iterations 0
time step continuity errors : sum local = 7.2451e-14, global = 4.34136e-15, cumulative = 5.28148e-14
rho max/min : 0.83124 0.710718
ExecutionTime = 0.43 s  ClockTime = 0 s

Courant Number mean: 0.00163469 max: 0.00661978
Time = 0.000118

diagonal:  Solving for rho, Initial residual = 0, Final residual = 0, No Iterations 0
PIMPLE: iteration 1
DILUPBiCG:  Solving for h, Initial residual = 0.00538911, Final residual = 9.18228e-16, No Iterations 1
DILUPBiCG:  Solving for p, Initial residual = 0.00173895, Final residual = 6.14664e-13, No Iterations 2
diagonal:  Solving for rho, Initial residual = 0, Final residual = 0, No Iterations 0
time step continuity errors : sum local = 7.20235e-14, global = 5.46271e-15, cumulative = 5.82775e-14
rho max/min : 0.83124 0.710718
ExecutionTime = 0.43 s  ClockTime = 0 s

Courant Number mean: 0.00164862 max: 0.00658836
Time = 0.000119

diagonal:  Solving for rho, Initial residual = 0, Final residual = 0, No Iterations 0
PIMPLE: iteration 1
DILUPBiCG:  Solving for h, Initial residual = 0.00533436, Final residual = 9.00361e-16, No Iterations 1
DILUPBiCG:  Solving for p, Initial residual = 0.00173399, Final residual = 6.14066e-13, No Iterations 2
diagonal:  Solving for rho, Initial residual = 0, Final residual = 0, No Iterations 0
time step continuity errors : sum local = 7.17602e-14, global = 6.12511e-15, cumulative = 6.44026e-14
rho max/min : 0.83124 0.710718
ExecutionTime = 0.44 s  ClockTime = 0 s

Courant Number mean: 0.00166252 max: 0.00654908
Time = 0.00012

diagonal:  Solving for rho, Initial residual = 0, Final residual = 0, No Iterations 0
PIMPLE: iteration 1
DILUPBiCG:  Solving for h, Initial residual = 0.00525794, Final residual = 8.82795e-16, No Iterations 1
DILUPBiCG:  Solving for p, Initial residual = 0.00172359, Final residual = 6.18204e-13, No Iterations 2
diagonal:  Solving for rho, Initial residual = 0, Final residual = 0, No Iterations 0
time step continuity errors : sum local = 7.20508e-14, global = 3.9432e-15, cumulative = 6.83458e-14
rho max/min : 0.83124 0.710718
ExecutionTime = 0.44 s  ClockTime = 0 s

Courant Number mean: 0.00167647 max: 0.00651917
Time = 0.000121

diagonal:  Solving for rho, Initial residual = 0, Final residual = 0, No Iterations 0
PIMPLE: iteration 1
DILUPBiCG:  Solving for h, Initial residual = 0.00517866, Final residual = 8.88877e-16, No Iterations 1
DILUPBiCG:  Solving for p, Initial residual = 0.0017223, Final residual = 6.13263e-13, No Iterations 2
diagonal:  Solving for rho, Initial residual = 0, Final residual = 0, No Iterations 0
time step continuity errors : sum local = 7.12583e-14, global = 4.77323e-15, cumulative = 7.3119e-14
rho max/min : 0.83124 0.710718
ExecutionTime = 0.44 s  ClockTime = 0 s

Courant Number mean: 0.00169039 max: 0.00657436
Time = 0.000122

diagonal:  Solving for rho, Initial residual = 0, Final residual = 0, No Iterations 0
PIMPLE: iteration 1
DILUPBiCG:  Solving for h, Initial residual = 0.00511914, Final residual = 7.98342e-16, No Iterations 1
DILUPBiCG:  Solving for p, Initial residual = 0.00171788, Final residual = 6.01298e-13, No Iterations 2
diagonal:  Solving for rho, Initial residual = 0, Final residual = 0, No Iterations 0
time step continuity errors : sum local = 6.96682e-14, global = 5.50187e-15, cumulative = 7.86209e-14
rho max/min : 0.83124 0.710718
ExecutionTime = 0.45 s  ClockTime = 0 s

Courant Number mean: 0.00170431 max: 0.00661182
Time = 0.000123

diagonal:  Solving for rho, Initial residual = 0, Final residual = 0, No Iterations 0
PIMPLE: iteration 1
DILUPBiCG:  Solving for h, Initial residual = 0.00505037, Final residual = 7.58816e-16, No Iterations 1
DILUPBiCG:  Solving for p, Initial residual = 0.0017117, Final residual = 5.81588e-13, No Iterations 2
[...]
time step continuity errors : sum local = 5.79276e-14, global = 6.65259e-15, cumulative = 6.98978e-13
rho max/min : 0.83124 0.710718
ExecutionTime = 0.78 s  ClockTime = 0 s

Courant Number mean: 0.00305697 max: 0.0065069
Time = 0.00022

diagonal:  Solving for rho, Initial residual = 0, Final residual = 0, No Iterations 0
PIMPLE: iteration 1
DILUPBiCG:  Solving for h, Initial residual = 0.00271374, Final residual = 2.11491e-16, No Iterations 1
DILUPBiCG:  Solving for p, Initial residual = 0.00234423, Final residual = 6.80781e-13, No Iterations 2
diagonal:  Solving for rho, Initial residual = 0, Final residual = 0, No Iterations 0
time step continuity errors : sum local = 5.62547e-14, global = 6.59485e-15, cumulative = 7.05572e-13
rho max/min : 0.83124 0.710718
ExecutionTime = 0.78 s  ClockTime = 0 s

Courant Number mean: 0.00307092 max: 0.00651859
Time = 0.000221

diagonal:  Solving for rho, Initial residual = 0, Final residual = 0, No Iterations 0
PIMPLE: iteration 1
DILUPBiCG:  Solving for h, Initial residual = 0.00271033, Final residual = 2.1355e-16, No Iterations 1
DILUPBiCG:  Solving for p, Initial residual = 0.0023807, Final residual = 6.84964e-13, No Iterations 2
diagonal:  Solving for rho, Initial residual = 0, Final residual = 0, No Iterations 0
time step continuity errors : sum local = 5.63525e-14, global = 6.50197e-15, cumulative = 7.12074e-13
rho max/min : 0.83124 0.710718
ExecutionTime = 0.78 s  ClockTime = 0 s

Courant Number mean: 0.00308485 max: 0.00651752
Time = 0.000222

diagonal:  Solving for rho, Initial residual = 0, Final residual = 0, No Iterations 0
PIMPLE: iteration 1
DILUPBiCG:  Solving for h, Initial residual = 0.0027275, Final residual = 2.22975e-16, No Iterations 1
DILUPBiCG:  Solving for p, Initial residual = 0.00240502, Final residual = 6.66874e-13, No Iterations 2
diagonal:  Solving for rho, Initial residual = 0, Final residual = 0, No Iterations 0
time step continuity errors : sum local = 5.46498e-14, global = 6.9478e-15, cumulative = 7.19022e-13
rho max/min : 0.83124 0.710718
ExecutionTime = 0.79 s  ClockTime = 0 s

Courant Number mean: 0.00309878 max: 0.00650554
Time = 0.000223

diagonal:  Solving for rho, Initial residual = 0, Final residual = 0, No Iterations 0
PIMPLE: iteration 1
DILUPBiCG:  Solving for h, Initial residual = 0.00273088, Final residual = 2.15039e-16, No Iterations 1
DILUPBiCG:  Solving for p, Initial residual = 0.00241843, Final residual = 6.83882e-13, No Iterations 2
diagonal:  Solving for rho, Initial residual = 0, Final residual = 0, No Iterations 0
time step continuity errors : sum local = 5.57972e-14, global = 7.89187e-15, cumulative = 7.26914e-13
rho max/min : 0.83124 0.710718
ExecutionTime = 0.79 s  ClockTime = 0 s

Courant Number mean: 0.00311271 max: 0.00648451
Time = 0.000224

diagonal:  Solving for rho, Initial residual = 0, Final residual = 0, No Iterations 0
PIMPLE: iteration 1
DILUPBiCG:  Solving for h, Initial residual = 0.00272162, Final residual = 2.13277e-16, No Iterations 1
DILUPBiCG:  Solving for p, Initial residual = 0.00242369, Final residual = 6.917e-13, No Iterations 2
diagonal:  Solving for rho, Initial residual = 0, Final residual = 0, No Iterations 0
time step continuity errors : sum local = 5.61997e-14, global = 8.13509e-15, cumulative = 7.35049e-13
rho max/min : 0.83124 0.710718
ExecutionTime = 0.79 s  ClockTime = 0 s

Courant Number mean: 0.00312666 max: 0.00645627
Time = 0.000225

diagonal:  Solving for rho, Initial residual = 0, Final residual = 0, No Iterations 0
PIMPLE: iteration 1
DILUPBiCG:  Solving for h, Initial residual = 0.00270413, Final residual = 2.12812e-16, No Iterations 1
DILUPBiCG:  Solving for p, Initial residual = 0.00242136, Final residual = 7.1552e-13, No Iterations 2
diagonal:  Solving for rho, Initial residual = 0, Final residual = 0, No Iterations 0
time step continuity errors : sum local = 5.78906e-14, global = 9.84295e-15, cumulative = 7.44892e-13
rho max/min : 0.83124 0.710718
ExecutionTime = 0.79 s  ClockTime = 0 s

Courant Number mean: 0.0031406 max: 0.00642304
Time = 0.000226

diagonal:  Solving for rho, Initial residual = 0, Final residual = 0, No Iterations 0
PIMPLE: iteration 1
DILUPBiCG:  Solving for h, Initial residual = 0.00268031, Final residual = 2.07362e-16, No Iterations 1
DILUPBiCG:  Solving for p, Initial residual = 0.00241873, Final residual = 7.57032e-13, No Iterations 2
diagonal:  Solving for rho, Initial residual = 0, Final residual = 0, No Iterations 0
time step continuity errors : sum local = 6.10069e-14, global = 5.6178e-15, cumulative = 7.5051e-13
rho max/min : 0.83124 0.710718
ExecutionTime = 0.79 s  ClockTime = 0 s

Courant Number mean: 0.0031546 max: 0.00644486
Time = 0.000227

diagonal:  Solving for rho, Initial residual = 0, Final residual = 0, No Iterations 0
PIMPLE: iteration 1
DILUPBiCG:  Solving for h, Initial residual = 0.00265728, Final residual = 1.9868e-16, No Iterations 1
DILUPBiCG:  Solving for p, Initial residual = 0.00241323, Final residual = 7.39958e-13, No Iterations 2
diagonal:  Solving for rho, Initial residual = 0, Final residual = 0, No Iterations 0
time step continuity errors : sum local = 5.93908e-14, global = 6.42608e-15, cumulative = 7.56936e-13
rho max/min : 0.83124 0.710718
ExecutionTime = 0.8 s  ClockTime = 0 s

Courant Number mean: 0.0031686 max: 0.00648239
Time = 0.000228

diagonal:  Solving for rho, Initial residual = 0, Final residual = 0, No Iterations 0
PIMPLE: iteration 1
DILUPBiCG:  Solving for h, Initial residual = 0.0026289, Final residual = 1.9448e-16, No Iterations 1
DILUPBiCG:  Solving for p, Initial residual = 0.00240938, Final residual = 7.18119e-13, No Iterations 2
diagonal:  Solving for rho, Initial residual = 0, Final residual = 0, No Iterations 0
time step continuity errors : sum local = 5.73827e-14, global = 6.51349e-15, cumulative = 7.63449e-13
rho max/min : 0.83124 0.710718
ExecutionTime = 0.8 s  ClockTime = 0 s

Courant Number mean: 0.00318259 max: 0.00650433
Time = 0.000229

diagonal:  Solving for rho, Initial residual = 0, Final residual = 0, No Iterations 0
PIMPLE: iteration 1
DILUPBiCG:  Solving for h, Initial residual = 0.00260267, Final residual = 1.95272e-16, No Iterations 1
DILUPBiCG:  Solving for p, Initial residual = 0.00243675, Final residual = 7.092e-13, No Iterations 2
diagonal:  Solving for rho, Initial residual = 0, Final residual = 0, No Iterations 0
time step continuity errors : sum local = 5.64347e-14, global = 6.47101e-15, cumulative = 7.6992e-13
rho max/min : 0.83124 0.710718
ExecutionTime = 0.8 s  ClockTime = 0 s

Courant Number mean: 0.00319655 max: 0.00651236
Time = 0.00023

diagonal:  Solving for rho, Initial residual = 0, Final residual = 0, No Iterations 0
PIMPLE: iteration 1
DILUPBiCG:  Solving for h, Initial residual = 0.00260911, Final residual = 2.06817e-16, No Iterations 1
DILUPBiCG:  Solving for p, Initial residual = 0.00247072, Final residual = 7.12554e-13, No Iterations 2
diagonal:  Solving for rho, Initial residual = 0, Final residual = 0, No Iterations 0
time step continuity errors : sum local = 5.6467e-14, global = 6.50672e-15, cumulative = 7.76427e-13
rho max/min : 0.83124 0.710718
ExecutionTime = 0.81 s  ClockTime = 0 s

Courant Number mean: 0.00321049 max: 0.00650827
Time = 0.000231

diagonal:  Solving for rho, Initial residual = 0, Final residual = 0, No Iterations 0
PIMPLE: iteration 1
DILUPBiCG:  Solving for h, Initial residual = 0.00262139, Final residual = 1.94135e-16, No Iterations 1
DILUPBiCG:  Solving for p, Initial residual = 0.00249435, Final residual = 6.95568e-13, No Iterations 2
diagonal:  Solving for rho, Initial residual = 0, Final residual = 0, No Iterations 0
time step continuity errors : sum local = 5.48652e-14, global = 6.96133e-15, cumulative = 7.83388e-13
rho max/min : 0.83124 0.710718
ExecutionTime = 0.81 s  ClockTime = 0 s

Courant Number mean: 0.00322441 max: 0.00649393
Time = 0.000232

diagonal:  Solving for rho, Initial residual = 0, Final residual = 0, No Iterations 0
PIMPLE: iteration 1
DILUPBiCG:  Solving for h, Initial residual = 0.0026227, Final residual = 1.91921e-16, No Iterations 1
DILUPBiCG:  Solving for p, Initial residual = 0.00250714, Final residual = 7.04061e-13, No Iterations 2
diagonal:  Solving for rho, Initial residual = 0, Final residual = 0, No Iterations 0
time step continuity errors : sum local = 5.52896e-14, global = 7.54123e-15, cumulative = 7.9093e-13
rho max/min : 0.83124 0.710718
ExecutionTime = 0.81 s  ClockTime = 0 s

Courant Number mean: 0.00323834 max: 0.00647116
Time = 0.000233

diagonal:  Solving for rho, Initial residual = 0, Final residual = 0, No Iterations 0
PIMPLE: iteration 1
DILUPBiCG:  Solving for h, Initial residual = 0.00261274, Final residual = 1.91604e-16, No Iterations 1
DILUPBiCG:  Solving for p, Initial residual = 0.00251078, Final residual = 7.14403e-13, No Iterations 2
diagonal:  Solving for rho, Initial residual = 0, Final residual = 0, No Iterations 0
time step continuity errors : sum local = 5.58486e-14, global = 8.70735e-15, cumulative = 7.99637e-13
rho max/min : 0.83124 0.710718
ExecutionTime = 0.82 s  ClockTime = 0 s

Courant Number mean: 0.00325229 max: 0.00644176
Time = 0.000234

diagonal:  Solving for rho, Initial residual = 0, Final residual = 0, No Iterations 0
PIMPLE: iteration 1
DILUPBiCG:  Solving for h, Initial residual = 0.00259444, Final residual = 1.89071e-16, No Iterations 1
DILUPBiCG:  Solving for p, Initial residual = 0.00250806, Final residual = 7.58106e-13, No Iterations 2
diagonal:  Solving for rho, Initial residual = 0, Final residual = 0, No Iterations 0
time step continuity errors : sum local = 5.90267e-14, global = 6.35091e-15, cumulative = 8.05988e-13
rho max/min : 0.83124 0.710718
ExecutionTime = 0.82 s  ClockTime = 0 s

Courant Number mean: 0.00326629 max: 0.00641226
Time = 0.000235

diagonal:  Solving for rho, Initial residual = 0, Final residual = 0, No Iterations 0
PIMPLE: iteration 1
DILUPBiCG:  Solving for h, Initial residual = 0.0025732, Final residual = 1.81487e-16, No Iterations 1
DILUPBiCG:  Solving for p, Initial residual = 0.00250745, Final residual = 7.5494e-13, No Iterations 2
diagonal:  Solving for rho, Initial residual = 0, Final residual = 0, No Iterations 0
time step continuity errors : sum local = 5.85239e-14, global = 7.14292e-15, cumulative = 8.13131e-13
rho max/min : 0.83124 0.710718
ExecutionTime = 0.82 s  ClockTime = 0 s

Courant Number mean: 0.00328028 max: 0.0064522
Time = 0.000236

diagonal:  Solving for rho, Initial residual = 0, Final residual = 0, No Iterations 0
PIMPLE: iteration 1
DILUPBiCG:  Solving for h, Initial residual = 0.00255168, Final residual = 1.76968e-16, No Iterations 1
DILUPBiCG:  Solving for p, Initial residual = 0.00250333, Final residual = 7.50525e-13, No Iterations 2
diagonal:  Solving for rho, Initial residual = 0, Final residual = 0, No Iterations 0
time step continuity errors : sum local = 5.79513e-14, global = 6.26307e-15, cumulative = 8.19394e-13
rho max/min : 0.83124 0.710718
ExecutionTime = 0.83 s  ClockTime = 0 s

Courant Number mean: 0.00329427 max: 0.00648473
Time = 0.000237

diagonal:  Solving for rho, Initial residual = 0, Final residual = 0, No Iterations 0
PIMPLE: iteration 1
DILUPBiCG:  Solving for h, Initial residual = 0.00252679, Final residual = 1.79699e-16, No Iterations 1
DILUPBiCG:  Solving for p, Initial residual = 0.00250055, Final residual = 7.34016e-13, No Iterations 2
diagonal:  Solving for rho, Initial residual = 0, Final residual = 0, No Iterations 0
time step continuity errors : sum local = 5.64284e-14, global = 6.30483e-15, cumulative = 8.25699e-13
rho max/min : 0.83124 0.710718
ExecutionTime = 0.83 s  ClockTime = 1 s

Courant Number mean: 0.00330826 max: 0.00650225
Time = 0.000238

diagonal:  Solving for rho, Initial residual = 0, Final residual = 0, No Iterations 0
PIMPLE: iteration 1
DILUPBiCG:  Solving for h, Initial residual = 0.00250244, Final residual = 1.85136e-16, No Iterations 1
DILUPBiCG:  Solving for p, Initial residual = 0.0025408, Final residual = 7.37159e-13, No Iterations 2
diagonal:  Solving for rho, Initial residual = 0, Final residual = 0, No Iterations 0
time step continuity errors : sum local = 5.64192e-14, global = 6.31433e-15, cumulative = 8.32013e-13
rho max/min : 0.83124 0.710718
ExecutionTime = 0.84 s  ClockTime = 1 s

Courant Number mean: 0.00332222 max: 0.00650649
Time = 0.000239

diagonal:  Solving for rho, Initial residual = 0, Final residual = 0, No Iterations 0
PIMPLE: iteration 1
DILUPBiCG:  Solving for h, Initial residual = 0.00251932, Final residual = 1.75412e-16, No Iterations 1
DILUPBiCG:  Solving for p, Initial residual = 0.00256951, Final residual = 7.30247e-13, No Iterations 2
diagonal:  Solving for rho, Initial residual = 0, Final residual = 0, No Iterations 0
time step continuity errors : sum local = 5.5646e-14, global = 6.47317e-15, cumulative = 8.38486e-13
rho max/min : 0.83124 0.710718
ExecutionTime = 0.84 s  ClockTime = 1 s

Courant Number mean: 0.00333617 max: 0.00649926
Time = 0.00024

diagonal:  Solving for rho, Initial residual = 0, Final residual = 0, No Iterations 0
PIMPLE: iteration 1
DILUPBiCG:  Solving for h, Initial residual = 0.00252508, Final residual = 1.76044e-16, No Iterations 1
DILUPBiCG:  Solving for p, Initial residual = 0.00258839, Final residual = 7.26022e-13, No Iterations 2
diagonal:  Solving for rho, Initial residual = 0, Final residual = 0, No Iterations 0
time step continuity errors : sum local = 5.50533e-14, global = 7.00079e-15, cumulative = 8.45487e-13
rho max/min : 0.83124 0.710718
ExecutionTime = 0.84 s  ClockTime = 1 s

Courant Number mean: 0.0033501 max: 0.00648241
Time = 0.000241

diagonal:  Solving for rho, Initial residual = 0, Final residual = 0, No Iterations 0
PIMPLE: iteration 1
DILUPBiCG:  Solving for h, Initial residual = 0.00252075, Final residual = 1.70858e-16, No Iterations 1
DILUPBiCG:  Solving for p, Initial residual = 0.00260047, Final residual = 7.30256e-13, No Iterations 2
diagonal:  Solving for rho, Initial residual = 0, Final residual = 0, No Iterations 0
time step continuity errors : sum local = 5.51227e-14, global = 7.65628e-15, cumulative = 8.53143e-13
rho max/min : 0.83124 0.710718
ExecutionTime = 0.85 s  ClockTime = 1 s

Courant Number mean: 0.00336404 max: 0.00645777
Time = 0.000242

diagonal:  Solving for rho, Initial residual = 0, Final residual = 0, No Iterations 0
PIMPLE: iteration 1
DILUPBiCG:  Solving for h, Initial residual = 0.00250975, Final residual = 1.69584e-16, No Iterations 1
DILUPBiCG:  Solving for p, Initial residual = 0.00260345, Final residual = 7.43972e-13, No Iterations 2
diagonal:  Solving for rho, Initial residual = 0, Final residual = 0, No Iterations 0
time step continuity errors : sum local = 5.59002e-14, global = 8.45045e-15, cumulative = 8.61594e-13
rho max/min : 0.83124 0.710718
ExecutionTime = 0.85 s  ClockTime = 1 s

Courant Number mean: 0.00337798 max: 0.00642711
Time = 0.000243

diagonal:  Solving for rho, Initial residual = 0, Final residual = 0, No Iterations 0
PIMPLE: iteration 1
DILUPBiCG:  Solving for h, Initial residual = 0.0024909, Final residual = 1.64146e-16, No Iterations 1
DILUPBiCG:  Solving for p, Initial residual = 0.00260112, Final residual = 7.75806e-13, No Iterations 2
diagonal:  Solving for rho, Initial residual = 0, Final residual = 0, No Iterations 0
time step continuity errors : sum local = 5.80472e-14, global = 6.04447e-15, cumulative = 8.67638e-13
rho max/min : 0.83124 0.710718
ExecutionTime = 0.85 s  ClockTime = 1 s

Courant Number mean: 0.00339197 max: 0.00641352
Time = 0.000244

diagonal:  Solving for rho, Initial residual = 0, Final residual = 0, No Iterations 0
PIMPLE: iteration 1
DILUPBiCG:  Solving for h, Initial residual = 0.00247132, Final residual = 1.59607e-16, No Iterations 1
DILUPBiCG:  Solving for p, Initial residual = 0.00260103, Final residual = 7.69383e-13, No Iterations 2
diagonal:  Solving for rho, Initial residual = 0, Final residual = 0, No Iterations 0
time step continuity errors : sum local = 5.73174e-14, global = 7.13053e-15, cumulative = 8.74769e-13
rho max/min : 0.83124 0.710718
ExecutionTime = 0.85 s  ClockTime = 1 s

Courant Number mean: 0.00340594 max: 0.00645608
Time = 0.000245

diagonal:  Solving for rho, Initial residual = 0, Final residual = 0, No Iterations 0
PIMPLE: iteration 1
DILUPBiCG:  Solving for h, Initial residual = 0.00245031, Final residual = 1.58888e-16, No Iterations 1
DILUPBiCG:  Solving for p, Initial residual = 0.00259797, Final residual = 7.47328e-13, No Iterations 2
diagonal:  Solving for rho, Initial residual = 0, Final residual = 0, No Iterations 0
time step continuity errors : sum local = 5.54313e-14, global = 7.47095e-15, cumulative = 8.8224e-13
rho max/min : 0.83124 0.710718
ExecutionTime = 0.86 s  ClockTime = 1 s

Courant Number mean: 0.00341993 max: 0.0064842
Time = 0.000246

diagonal:  Solving for rho, Initial residual = 0, Final residual = 0, No Iterations 0
PIMPLE: iteration 1
DILUPBiCG:  Solving for h, Initial residual = 0.00242664, Final residual = 1.54986e-16, No Iterations 1
DILUPBiCG:  Solving for p, Initial residual = 0.00261146, Final residual = 7.37212e-13, No Iterations 2
diagonal:  Solving for rho, Initial residual = 0, Final residual = 0, No Iterations 0
time step continuity errors : sum local = 5.44355e-14, global = 7.59004e-15, cumulative = 8.8983e-13
rho max/min : 0.83124 0.710718
ExecutionTime = 0.86 s  ClockTime = 1 s

Courant Number mean: 0.00343391 max: 0.0064979
Time = 0.000247

diagonal:  Solving for rho, Initial residual = 0, Final residual = 0, No Iterations 0
PIMPLE: iteration 1
DILUPBiCG:  Solving for h, Initial residual = 0.00241762, Final residual = 1.53456e-16, No Iterations 1
DILUPBiCG:  Solving for p, Initial residual = 0.00265225, Final residual = 7.616e-13, No Iterations 2
diagonal:  Solving for rho, Initial residual = 0, Final residual = 0, No Iterations 0
time step continuity errors : sum local = 5.59729e-14, global = 6.10078e-15, cumulative = 8.95931e-13
rho max/min : 0.83124 0.710718
ExecutionTime = 0.86 s  ClockTime = 1 s

Courant Number mean: 0.00344787 max: 0.00649892
Time = 0.000248

diagonal:  Solving for rho, Initial residual = 0, Final residual = 0, No Iterations 0
PIMPLE: iteration 1
DILUPBiCG:  Solving for h, Initial residual = 0.00243271, Final residual = 1.60722e-16, No Iterations 1
DILUPBiCG:  Solving for p, Initial residual = 0.00267981, Final residual = 7.54492e-13, No Iterations 2
diagonal:  Solving for rho, Initial residual = 0, Final residual = 0, No Iterations 0
time step continuity errors : sum local = 5.51904e-14, global = 6.34472e-15, cumulative = 9.02275e-13
rho max/min : 0.83124 0.710718
ExecutionTime = 0.87 s  ClockTime = 1 s

Courant Number mean: 0.00346182 max: 0.00648909
Time = 0.000249

diagonal:  Solving for rho, Initial residual = 0, Final residual = 0, No Iterations 0
PIMPLE: iteration 1
DILUPBiCG:  Solving for h, Initial residual = 0.00243497, Final residual = 1.57979e-16, No Iterations 1
DILUPBiCG:  Solving for p, Initial residual = 0.00269749, Final residual = 7.57889e-13, No Iterations 2
diagonal:  Solving for rho, Initial residual = 0, Final residual = 0, No Iterations 0
time step continuity errors : sum local = 5.51721e-14, global = 7.02484e-15, cumulative = 9.093e-13
rho max/min : 0.83124 0.710718
ExecutionTime = 0.87 s  ClockTime = 1 s

Courant Number mean: 0.00347575 max: 0.00647023
Time = 0.00025

diagonal:  Solving for rho, Initial residual = 0, Final residual = 0, No Iterations 0
PIMPLE: iteration 1
DILUPBiCG:  Solving for h, Initial residual = 0.00242893, Final residual = 1.55429e-16, No Iterations 1
DILUPBiCG:  Solving for p, Initial residual = 0.00270473, Final residual = 7.64204e-13, No Iterations 2
diagonal:  Solving for rho, Initial residual = 0, Final residual = 0, No Iterations 0
time step continuity errors : sum local = 5.53577e-14, global = 7.73952e-15, cumulative = 9.1704e-13
rho max/min : 0.83124 0.710718
ExecutionTime = 0.88 s  ClockTime = 1 s

End

