/*---------------------------------------------------------------------------*\
| =========                 |                                                 |
| \\      /  F ield         | OpenFOAM: The Open Source CFD Toolbox           |
|  \\    /   O peration     | Version:  3.0.1                                 |
|   \\  /    A nd           | Web:      www.OpenFOAM.org                      |
|    \\/     M anipulation  |                                                 |
\*---------------------------------------------------------------------------*/
Build  : 3.0.1-d8a290b55d28
Exec   : pisoCentralFoam
Date   : Oct 13 2016
Time   : 14:47:21
Host   : "bl022.unicluster.ru"
PID    : 8186
Case   : /lustre/unicluster/home/matvey.kraposhin/run/Unicfdlab/github-hybridCentralSolvers/Tutorials-3.0.1/case-subsonic/Aco-1
nProcs : 1
sigFpe : Enabling floating point exception trapping (FOAM_SIGFPE).
fileModificationChecking : Monitoring run-time modified files using timeStampMaster
allowSystemOperations : Allowing user-supplied system call operations

// * * * * * * * * * * * * * * * * * * * * * * * * * * * * * * * * * * * * * //
Create time

Create mesh for time = 0


PIMPLE: Operating solver in PISO mode

Reading thermophysical properties

Selecting thermodynamics package 
{
    type            hePsiThermo;
    mixture         pureMixture;
    transport       const;
    thermo          hConst;
    equationOfState perfectGas;
    specie          specie;
    energy          sensibleEnthalpy;
}

Reading field U

Creating field kinetic energy K

Selecting finite volume kappaFunction type sonicCourantInverse
Creating turbulence model

Selecting turbulence model type laminar
No finite volume options present

No MRF models present

Marking cells with bad quality to limit pressure gradient
max/min FaceSonicCourant: 0.0223507/0.00568081
max/min kappa: 1/1
Courant Number max : 0 velocity magnitude: 0

Starting time loop

Mean and max Acoustic Courant Numbers = 1.66667e-20 3.33333e-20
Courant Number max : 0 velocity magnitude: 0
Time = 1e-07

diagonal:  Solving for rho, Initial residual = 0, Final residual = 0, No Iterations 0
rho max/min : 0.83124 / 0.710718
DILUPBiCG:  Solving for h, Initial residual = 1, Final residual = 6.21587e-18, No Iterations 1
max/min T: 289/289
DILUPBiCG:  Solving for p, Initial residual = 0.000113525, Final residual = 8.77882e-15, No Iterations 2
max(U): (0.230653 3.6748e-06 2.13188e-33)
max/min p: 68970/58970
diagonal:  Solving for rho, Initial residual = 0, Final residual = 0, No Iterations 0
rho max/min : 0.83124 / 0.710718
time step continuity errors : sum local = 1.47717e-15, global = 1.18945e-16, cumulative = 1.18945e-16
max/min FaceSonicCourant: 0.0223507/0.00568081
max/min kappa: 1/1
ExecutionTime = 0.05 s  ClockTime = 0 s

Mean and max Acoustic Courant Numbers = 0.00471946 0.0111754
Courant Number max : 0.001755 velocity magnitude: 26.7638
Time = 2e-07

diagonal:  Solving for rho, Initial residual = 0, Final residual = 0, No Iterations 0
rho max/min : 0.83124 / 0.710718
DILUPBiCG:  Solving for h, Initial residual = 1, Final residual = 2.48017e-10, No Iterations 2
max/min T: 289.078/288.933
DILUPBiCG:  Solving for p, Initial residual = 0.000144265, Final residual = 1.04113e-15, No Iterations 2
max(U): (0.457601 9.33833e-06 2.12383e-33)
max/min p: 68970/58970
diagonal:  Solving for rho, Initial residual = 0, Final residual = 0, No Iterations 0
rho max/min : 0.83124 / 0.710718
time step continuity errors : sum local = 2.87283e-16, global = -8.4961e-18, cumulative = 1.10449e-16
max/min FaceSonicCourant: 0.0223507/0.00568015
max/min kappa: 1/1
ExecutionTime = 0.06 s  ClockTime = 0 s

Mean and max Acoustic Courant Numbers = 0.00471954 0.0111754
Courant Number max : 0.00173082 velocity magnitude: 26.395
Time = 3e-07

diagonal:  Solving for rho, Initial residual = 0, Final residual = 0, No Iterations 0
rho max/min : 0.83124 / 0.710718
DILUPBiCG:  Solving for h, Initial residual = 0.365237, Final residual = 1.32029e-10, No Iterations 2
max/min T: 289.175/288.849
DILUPBiCG:  Solving for p, Initial residual = 0.000150547, Final residual = 1.11612e-14, No Iterations 2
max(U): (0.683521 1.54466e-05 2.12507e-33)
max/min p: 68970/58970
diagonal:  Solving for rho, Initial residual = 0, Final residual = 0, No Iterations 0
rho max/min : 0.83124 / 0.710718
time step continuity errors : sum local = 1.869e-15, global = -9.07211e-18, cumulative = 1.01377e-16
max/min FaceSonicCourant: 0.0223507/0.00567933
max/min kappa: 1/1
ExecutionTime = 0.08 s  ClockTime = 0 s

Mean and max Acoustic Courant Numbers = 0.00471962 0.0111754
Courant Number max : 0.00170216 velocity magnitude: 25.958
Time = 4e-07

diagonal:  Solving for rho, Initial residual = 0, Final residual = 0, No Iterations 0
rho max/min : 0.83124 / 0.710718
DILUPBiCG:  Solving for h, Initial residual = 0.210979, Final residual = 4.63408e-11, No Iterations 2
max/min T: 289.273/288.764
DILUPBiCG:  Solving for p, Initial residual = 0.000150033, Final residual = 9.13242e-10, No Iterations 1
max(U): (0.90724 2.15709e-05 2.13299e-33)
max/min p: 68970/58970
diagonal:  Solving for rho, Initial residual = 0, Final residual = 0, No Iterations 0
rho max/min : 0.83124 / 0.710718
time step continuity errors : sum local = 1.42654e-10, global = -2.28583e-12, cumulative = -2.28573e-12
max/min FaceSonicCourant: 0.0223507/0.00567849
max/min kappa: 1/1
ExecutionTime = 0.08 s  ClockTime = 0 s

Mean and max Acoustic Courant Numbers = 0.00471969 0.0111754
Courant Number max : 0.00167333 velocity magnitude: 25.5183
Time = 5e-07

diagonal:  Solving for rho, Initial residual = 0, Final residual = 0, No Iterations 0
rho max/min : 0.83124 / 0.710718
DILUPBiCG:  Solving for h, Initial residual = 0.143732, Final residual = 2.68004e-11, No Iterations 2
max/min T: 289.369/288.681
DILUPBiCG:  Solving for p, Initial residual = 0.000147644, Final residual = 9.6636e-15, No Iterations 2
max(U): (1.12964 2.76422e-05 2.13058e-33)
max/min p: 68970/58970
diagonal:  Solving for rho, Initial residual = 0, Final residual = 0, No Iterations 0
rho max/min : 0.83124 / 0.710718
time step continuity errors : sum local = 1.62952e-15, global = -5.18406e-18, cumulative = -2.28573e-12
max/min FaceSonicCourant: 0.0223507/0.00567767
max/min kappa: 1/1
ExecutionTime = 0.09 s  ClockTime = 0 s

Mean and max Acoustic Courant Numbers = 0.00471977 0.0111754
Courant Number max : 0.00164543 velocity magnitude: 25.0927
Time = 6e-07

diagonal:  Solving for rho, Initial residual = 0, Final residual = 0, No Iterations 0
rho max/min : 0.83124 / 0.710718
DILUPBiCG:  Solving for h, Initial residual = 0.107316, Final residual = 2.33469e-11, No Iterations 2
max/min T: 289.461/288.6
DILUPBiCG:  Solving for p, Initial residual = 0.000144812, Final residual = 7.78923e-15, No Iterations 2
max(U): (1.35033 3.35881e-05 2.13626e-33)
max/min p: 68970/58970
diagonal:  Solving for rho, Initial residual = 0, Final residual = 0, No Iterations 0
rho max/min : 0.83124 / 0.710718
time step continuity errors : sum local = 1.33101e-15, global = -2.34723e-17, cumulative = -2.28576e-12
max/min FaceSonicCourant: 0.0223507/0.00567688
max/min kappa: 1/1
ExecutionTime = 0.1 s  ClockTime = 0 s

Mean and max Acoustic Courant Numbers = 0.00471984 0.0111754
Courant Number max : 0.00161872 velocity magnitude: 24.6855
Time = 7e-07

diagonal:  Solving for rho, Initial residual = 0, Final residual = 0, No Iterations 0
rho max/min : 0.83124 / 0.710718
DILUPBiCG:  Solving for h, Initial residual = 0.0848931, Final residual = 1.86355e-11, No Iterations 2
max/min T: 289.548/288.523
DILUPBiCG:  Solving for p, Initial residual = 0.00014195, Final residual = 8.96615e-15, No Iterations 2
max(U): (1.56947 3.94033e-05 2.11497e-33)
max/min p: 68970/58970
diagonal:  Solving for rho, Initial residual = 0, Final residual = 0, No Iterations 0
rho max/min : 0.83124 / 0.710718
time step continuity errors : sum local = 1.51432e-15, global = 1.52642e-17, cumulative = -2.28574e-12
max/min FaceSonicCourant: 0.0223507/0.00567612
max/min kappa: 1/1
ExecutionTime = 0.1 s  ClockTime = 0 s

Mean and max Acoustic Courant Numbers = 0.00471992 0.0111754
Courant Number max : 0.00159326 velocity magnitude: 24.2973
Time = 8e-07

diagonal:  Solving for rho, Initial residual = 0, Final residual = 0, No Iterations 0
rho max/min : 0.83124 / 0.710718
DILUPBiCG:  Solving for h, Initial residual = 0.0698108, Final residual = 1.42825e-11, No Iterations 2
max/min T: 289.632/288.448
DILUPBiCG:  Solving for p, Initial residual = 0.000139175, Final residual = 6.12485e-15, No Iterations 2
max(U): (1.78696 4.50895e-05 2.11951e-33)
max/min p: 68970/58970
diagonal:  Solving for rho, Initial residual = 0, Final residual = 0, No Iterations 0
rho max/min : 0.83124 / 0.710718
time step continuity errors : sum local = 1.0754e-15, global = -3.65764e-17, cumulative = -2.28578e-12
max/min FaceSonicCourant: 0.0223507/0.00567539
max/min kappa: 1/1
ExecutionTime = 0.11 s  ClockTime = 0 s

Mean and max Acoustic Courant Numbers = 0.00471999 0.0111754
Courant Number max : 0.00156902 velocity magnitude: 23.9276
Time = 9e-07

diagonal:  Solving for rho, Initial residual = 0, Final residual = 0, No Iterations 0
rho max/min : 0.83124 / 0.710718
DILUPBiCG:  Solving for h, Initial residual = 0.0590112, Final residual = 1.14507e-11, No Iterations 2
max/min T: 289.712/288.377
DILUPBiCG:  Solving for p, Initial residual = 0.000136517, Final residual = 7.24345e-10, No Iterations 1
max(U): (2.00284 5.0644e-05 2.10812e-33)
max/min p: 68970/58970
diagonal:  Solving for rho, Initial residual = 0, Final residual = 0, No Iterations 0
rho max/min : 0.83124 / 0.710718
time step continuity errors : sum local = 1.12983e-10, global = -5.44454e-12, cumulative = -7.73032e-12
max/min FaceSonicCourant: 0.0223507/0.00567469
max/min kappa: 1/1
ExecutionTime = 0.11 s  ClockTime = 0 s

Mean and max Acoustic Courant Numbers = 0.00472007 0.0111754
Courant Number max : 0.00154595 velocity magnitude: 23.5758
Time = 1e-06

diagonal:  Solving for rho, Initial residual = 0, Final residual = 0, No Iterations 0
rho max/min : 0.83124 / 0.710718
DILUPBiCG:  Solving for h, Initial residual = 0.0509141, Final residual = 9.71652e-12, No Iterations 2
max/min T: 289.788/288.308
DILUPBiCG:  Solving for p, Initial residual = 0.000133982, Final residual = 7.41814e-10, No Iterations 1
max(U): (2.21711 5.60676e-05 2.10812e-33)
max/min p: 68970/58970
diagonal:  Solving for rho, Initial residual = 0, Final residual = 0, No Iterations 0
rho max/min : 0.83124 / 0.710718
time step continuity errors : sum local = 1.15676e-10, global = -5.88034e-12, cumulative = -1.36107e-11
max/min FaceSonicCourant: 0.0223507/0.00567401
max/min kappa: 1/1
ExecutionTime = 0.12 s  ClockTime = 0 s

Mean and max Acoustic Courant Numbers = 0.00472014 0.0111754
Courant Number max : 0.00152401 velocity magnitude: 23.2412
Time = 1.1e-06

diagonal:  Solving for rho, Initial residual = 0, Final residual = 0, No Iterations 0
rho max/min : 0.83124 / 0.710718
DILUPBiCG:  Solving for h, Initial residual = 0.0446274, Final residual = 8.11319e-12, No Iterations 2
max/min T: 289.86/288.243
DILUPBiCG:  Solving for p, Initial residual = 0.000131566, Final residual = 7.81665e-10, No Iterations 1
max(U): (2.42967 6.1349e-05 2.10812e-33)
max/min p: 68970/58970
diagonal:  Solving for rho, Initial residual = 0, Final residual = 0, No Iterations 0
rho max/min : 0.83124 / 0.710718
time step continuity errors : sum local = 1.21858e-10, global = -6.28172e-12, cumulative = -1.98924e-11
max/min FaceSonicCourant: 0.0223507/0.00567337
max/min kappa: 1/1
ExecutionTime = 0.13 s  ClockTime = 0 s

Mean and max Acoustic Courant Numbers = 0.00472021 0.0111754
Courant Number max : 0.00150315 velocity magnitude: 22.923
Time = 1.2e-06

diagonal:  Solving for rho, Initial residual = 0, Final residual = 0, No Iterations 0
rho max/min : 0.83124 / 0.710718
DILUPBiCG:  Solving for h, Initial residual = 0.0396117, Final residual = 6.95449e-12, No Iterations 2
max/min T: 289.929/288.18
DILUPBiCG:  Solving for p, Initial residual = 0.000129265, Final residual = 7.45005e-10, No Iterations 1
max(U): (2.64049 6.64788e-05 2.11031e-33)
max/min p: 68970/58970
diagonal:  Solving for rho, Initial residual = 0, Final residual = 0, No Iterations 0
rho max/min : 0.83124 / 0.710718
time step continuity errors : sum local = 1.16112e-10, global = -6.65161e-12, cumulative = -2.6544e-11
max/min FaceSonicCourant: 0.0223507/0.00567275
max/min kappa: 1/1
ExecutionTime = 0.13 s  ClockTime = 0 s

Mean and max Acoustic Courant Numbers = 0.00472028 0.0111754
Courant Number max : 0.00148331 velocity magnitude: 22.6205
Time = 1.3e-06

diagonal:  Solving for rho, Initial residual = 0, Final residual = 0, No Iterations 0
rho max/min : 0.83124 / 0.710718
DILUPBiCG:  Solving for h, Initial residual = 0.0355218, Final residual = 6.0494e-12, No Iterations 2
max/min T: 289.995/288.119
DILUPBiCG:  Solving for p, Initial residual = 0.000127075, Final residual = 7.12644e-10, No Iterations 1
max(U): (2.84955 7.14479e-05 2.11185e-33)
max/min p: 68970/58970
diagonal:  Solving for rho, Initial residual = 0, Final residual = 0, No Iterations 0
rho max/min : 0.83124 / 0.710718
time step continuity errors : sum local = 1.1104e-10, global = -6.99079e-12, cumulative = -3.35348e-11
max/min FaceSonicCourant: 0.0223507/0.00567215
max/min kappa: 1/1
ExecutionTime = 0.14 s  ClockTime = 0 s

Mean and max Acoustic Courant Numbers = 0.00472035 0.0111754
Courant Number max : 0.00146447 velocity magnitude: 22.3331
Time = 1.4e-06

diagonal:  Solving for rho, Initial residual = 0, Final residual = 0, No Iterations 0
rho max/min : 0.83124 / 0.710718
DILUPBiCG:  Solving for h, Initial residual = 0.0321273, Final residual = 5.46645e-12, No Iterations 2
max/min T: 290.058/288.061
DILUPBiCG:  Solving for p, Initial residual = 0.000124991, Final residual = 6.57942e-10, No Iterations 1
max(U): (3.05683 7.62475e-05 2.11265e-33)
max/min p: 68970/58970
diagonal:  Solving for rho, Initial residual = 0, Final residual = 0, No Iterations 0
rho max/min : 0.83124 / 0.710718
time step continuity errors : sum local = 1.0249e-10, global = -7.30131e-12, cumulative = -4.08361e-11
max/min FaceSonicCourant: 0.0223507/0.00567158
max/min kappa: 1/1
ExecutionTime = 0.15 s  ClockTime = 0 s

Mean and max Acoustic Courant Numbers = 0.00472042 0.0111754
Courant Number max : 0.00144656 velocity magnitude: 22.0601
Time = 1.5e-06

diagonal:  Solving for rho, Initial residual = 0, Final residual = 0, No Iterations 0
rho max/min : 0.83124 / 0.710718
DILUPBiCG:  Solving for h, Initial residual = 0.0292682, Final residual = 3.69647e-12, No Iterations 2
max/min T: 290.117/288.005
DILUPBiCG:  Solving for p, Initial residual = 0.000123009, Final residual = 6.16344e-10, No Iterations 1
max(U): (3.26232 8.08687e-05 2.11189e-33)
max/min p: 68970/58970
diagonal:  Solving for rho, Initial residual = 0, Final residual = 0, No Iterations 0
rho max/min : 0.83124 / 0.710718
time step continuity errors : sum local = 9.59865e-11, global = -7.58492e-12, cumulative = -4.8421e-11
max/min FaceSonicCourant: 0.0223507/0.00567103
max/min kappa: 1/1
ExecutionTime = 0.15 s  ClockTime = 0 s

Mean and max Acoustic Courant Numbers = 0.00472049 0.0111754
Courant Number max : 0.00142958 velocity magnitude: 21.801
Time = 1.6e-06

diagonal:  Solving for rho, Initial residual = 0, Final residual = 0, No Iterations 0
rho max/min : 0.83124 / 0.710718
DILUPBiCG:  Solving for h, Initial residual = 0.0268301, Final residual = 3.13396e-12, No Iterations 2
max/min T: 290.174/287.952
DILUPBiCG:  Solving for p, Initial residual = 0.000121124, Final residual = 5.85347e-10, No Iterations 1
max(U): (3.46601 8.53028e-05 2.11217e-33)
max/min p: 68970/58970
diagonal:  Solving for rho, Initial residual = 0, Final residual = 0, No Iterations 0
rho max/min : 0.83124 / 0.710718
time step continuity errors : sum local = 9.11366e-11, global = -7.84309e-12, cumulative = -5.62641e-11
max/min FaceSonicCourant: 0.0223507/0.0056705
max/min kappa: 1/1
ExecutionTime = 0.16 s  ClockTime = 0 s

Mean and max Acoustic Courant Numbers = 0.00472056 0.0111754
Courant Number max : 0.00141345 velocity magnitude: 21.5552
Time = 1.7e-06

diagonal:  Solving for rho, Initial residual = 0, Final residual = 0, No Iterations 0
rho max/min : 0.83124 / 0.710718
DILUPBiCG:  Solving for h, Initial residual = 0.024729, Final residual = 2.63411e-12, No Iterations 2
max/min T: 290.228/287.901
DILUPBiCG:  Solving for p, Initial residual = 0.000119333, Final residual = 5.53616e-10, No Iterations 1
max(U): (3.66788 8.95407e-05 2.11336e-33)
max/min p: 68970/58970
diagonal:  Solving for rho, Initial residual = 0, Final residual = 0, No Iterations 0
rho max/min : 0.83124 / 0.710718
time step continuity errors : sum local = 8.61752e-11, global = -5.28587e-12, cumulative = -6.155e-11
max/min FaceSonicCourant: 0.0223507/0.00567
max/min kappa: 1/1
ExecutionTime = 0.16 s  ClockTime = 0 s

Mean and max Acoustic Courant Numbers = 0.00472063 0.0111754
Courant Number max : 0.00139816 velocity magnitude: 21.3219
Time = 1.8e-06

diagonal:  Solving for rho, Initial residual = 0, Final residual = 0, No Iterations 0
rho max/min : 0.83124 / 0.710718
DILUPBiCG:  Solving for h, Initial residual = 0.0229019, Final residual = 2.22506e-12, No Iterations 2
max/min T: 290.28/287.851
DILUPBiCG:  Solving for p, Initial residual = 0.00011763, Final residual = 5.30999e-10, No Iterations 1
max(U): (3.86792 9.36532e-05 2.11436e-33)
max/min p: 68970/58970
diagonal:  Solving for rho, Initial residual = 0, Final residual = 0, No Iterations 0
rho max/min : 0.83124 / 0.710718
time step continuity errors : sum local = 8.2635e-11, global = -5.44198e-12, cumulative = -6.69919e-11
max/min FaceSonicCourant: 0.0223507/0.00566951
max/min kappa: 1/1
ExecutionTime = 0.17 s  ClockTime = 0 s

Mean and max Acoustic Courant Numbers = 0.0047207 0.0111754
Courant Number max : 0.00138365 velocity magnitude: 21.1007
Time = 1.9e-06

diagonal:  Solving for rho, Initial residual = 0, Final residual = 0, No Iterations 0
rho max/min : 0.83124 / 0.710718
DILUPBiCG:  Solving for h, Initial residual = 0.0213004, Final residual = 1.9033e-12, No Iterations 2
max/min T: 290.329/287.804
DILUPBiCG:  Solving for p, Initial residual = 0.000116014, Final residual = 5.11969e-10, No Iterations 1
max(U): (4.06613 9.76744e-05 2.11812e-33)
max/min p: 68970/58970
diagonal:  Solving for rho, Initial residual = 0, Final residual = 0, No Iterations 0
rho max/min : 0.83124 / 0.710718
time step continuity errors : sum local = 7.96547e-11, global = -5.5837e-12, cumulative = -7.25756e-11
max/min FaceSonicCourant: 0.0223507/0.00566905
max/min kappa: 1/1
ExecutionTime = 0.18 s  ClockTime = 0 s

Mean and max Acoustic Courant Numbers = 0.00472077 0.0111754
Courant Number max : 0.0013699 velocity magnitude: 20.8909
Time = 2e-06

diagonal:  Solving for rho, Initial residual = 0, Final residual = 0, No Iterations 0
rho max/min : 0.83124 / 0.710718
DILUPBiCG:  Solving for h, Initial residual = 0.0198872, Final residual = 1.70108e-12, No Iterations 2
max/min T: 290.375/287.759
DILUPBiCG:  Solving for p, Initial residual = 0.00011448, Final residual = 4.97085e-10, No Iterations 1
max(U): (4.2625 0.000101605 2.1209e-33)
max/min p: 68970/58970
diagonal:  Solving for rho, Initial residual = 0, Final residual = 0, No Iterations 0
rho max/min : 0.83124 / 0.710718
time step continuity errors : sum local = 7.7321e-11, global = -5.70989e-12, cumulative = -7.82855e-11
max/min FaceSonicCourant: 0.0223507/0.0056686
max/min kappa: 1/1
ExecutionTime = 0.18 s  ClockTime = 0 s

Mean and max Acoustic Courant Numbers = 0.00472083 0.0111754
Courant Number max : 0.00135687 velocity magnitude: 20.6922
Time = 2.1e-06

diagonal:  Solving for rho, Initial residual = 0, Final residual = 0, No Iterations 0
rho max/min : 0.83124 / 0.710718
DILUPBiCG:  Solving for h, Initial residual = 0.0186322, Final residual = 1.54163e-12, No Iterations 2
max/min T: 290.419/287.715
DILUPBiCG:  Solving for p, Initial residual = 0.000113023, Final residual = 4.86016e-10, No Iterations 1
max(U): (4.45703 0.000105448 2.12508e-33)
max/min p: 68970/58970
diagonal:  Solving for rho, Initial residual = 0, Final residual = 0, No Iterations 0
rho max/min : 0.83124 / 0.710718
time step continuity errors : sum local = 7.55819e-11, global = -5.82277e-12, cumulative = -8.41083e-11
max/min FaceSonicCourant: 0.0223507/0.00566817
max/min kappa: 1/1
ExecutionTime = 0.19 s  ClockTime = 0 s

Mean and max Acoustic Courant Numbers = 0.0047209 0.0111754
Courant Number max : 0.00134453 velocity magnitude: 20.504
Time = 2.2e-06

diagonal:  Solving for rho, Initial residual = 0, Final residual = 0, No Iterations 0
rho max/min : 0.83124 / 0.710718
DILUPBiCG:  Solving for h, Initial residual = 0.0175117, Final residual = 1.43094e-12, No Iterations 2
max/min T: 290.462/287.674
DILUPBiCG:  Solving for p, Initial residual = 0.000111642, Final residual = 4.77503e-10, No Iterations 1
max(U): (4.64971 0.000109205 2.11956e-33)
max/min p: 68970/58970
diagonal:  Solving for rho, Initial residual = 0, Final residual = 0, No Iterations 0
rho max/min : 0.83124 / 0.710718
time step continuity errors : sum local = 7.42411e-11, global = -5.9237e-12, cumulative = -9.0032e-11
max/min FaceSonicCourant: 0.0223507/0.00566776
max/min kappa: 1/1
ExecutionTime = 0.19 s  ClockTime = 0 s

Mean and max Acoustic Courant Numbers = 0.00472096 0.0111754
Courant Number max : 0.00133285 velocity magnitude: 20.3259
Time = 2.3e-06

diagonal:  Solving for rho, Initial residual = 0, Final residual = 0, No Iterations 0
rho max/min : 0.83124 / 0.710718
DILUPBiCG:  Solving for h, Initial residual = 0.0165064, Final residual = 1.37789e-12, No Iterations 2
max/min T: 290.502/287.634
DILUPBiCG:  Solving for p, Initial residual = 0.000110332, Final residual = 4.70864e-10, No Iterations 1
max(U): (4.84054 0.00011288 2.11244e-33)
max/min p: 68970/58970
diagonal:  Solving for rho, Initial residual = 0, Final residual = 0, No Iterations 0
rho max/min : 0.83124 / 0.710718
time step continuity errors : sum local = 7.31925e-11, global = -6.0132e-12, cumulative = -9.60452e-11
max/min FaceSonicCourant: 0.0223507/0.00566737
max/min kappa: 1/1
ExecutionTime = 0.2 s  ClockTime = 0 s

Mean and max Acoustic Courant Numbers = 0.00472103 0.0111754
Courant Number max : 0.0013218 velocity magnitude: 20.1574
Time = 2.4e-06

diagonal:  Solving for rho, Initial residual = 0, Final residual = 0, No Iterations 0
rho max/min : 0.83124 / 0.710718
DILUPBiCG:  Solving for h, Initial residual = 0.0156007, Final residual = 1.32521e-12, No Iterations 2
max/min T: 290.54/287.595
DILUPBiCG:  Solving for p, Initial residual = 0.00010909, Final residual = 4.66243e-10, No Iterations 1
max(U): (5.02952 0.000116475 2.11172e-33)
max/min p: 68970/58970
diagonal:  Solving for rho, Initial residual = 0, Final residual = 0, No Iterations 0
rho max/min : 0.83124 / 0.710718
time step continuity errors : sum local = 7.24582e-11, global = -6.09213e-12, cumulative = -1.02137e-10
max/min FaceSonicCourant: 0.0223507/0.00566699
max/min kappa: 1/1
ExecutionTime = 0.21 s  ClockTime = 0 s

Mean and max Acoustic Courant Numbers = 0.00472109 0.0111754
Courant Number max : 0.00131135 velocity magnitude: 19.9981
Time = 2.5e-06

diagonal:  Solving for rho, Initial residual = 0, Final residual = 0, No Iterations 0
rho max/min : 0.83124 / 0.710718
DILUPBiCG:  Solving for h, Initial residual = 0.0147814, Final residual = 1.27915e-12, No Iterations 2
max/min T: 290.576/287.558
DILUPBiCG:  Solving for p, Initial residual = 0.000107914, Final residual = 4.62988e-10, No Iterations 1
max(U): (5.21665 0.000120311 2.11162e-33)
max/min p: 68970/58970
diagonal:  Solving for rho, Initial residual = 0, Final residual = 0, No Iterations 0
rho max/min : 0.83124 / 0.710718
time step continuity errors : sum local = 7.19366e-11, global = -6.16123e-12, cumulative = -1.08299e-10
max/min FaceSonicCourant: 0.0223507/0.00566663
max/min kappa: 1/1
ExecutionTime = 0.21 s  ClockTime = 0 s

Mean and max Acoustic Courant Numbers = 0.00472115 0.0111754
Courant Number max : 0.00130148 velocity magnitude: 19.8476
Time = 2.6e-06

diagonal:  Solving for rho, Initial residual = 0, Final residual = 0, No Iterations 0
rho max/min : 0.83124 / 0.710718
DILUPBiCG:  Solving for h, Initial residual = 0.0140378, Final residual = 1.24556e-12, No Iterations 2
max/min T: 290.61/287.523
DILUPBiCG:  Solving for p, Initial residual = 0.000106801, Final residual = 4.53573e-10, No Iterations 1
max(U): (5.40192 0.000124337 2.11295e-33)
max/min p: 68970/58970
diagonal:  Solving for rho, Initial residual = 0, Final residual = 0, No Iterations 0
rho max/min : 0.83124 / 0.710718
time step continuity errors : sum local = 7.04586e-11, global = -1.22845e-11, cumulative = -1.20583e-10
max/min FaceSonicCourant: 0.0223507/0.00566628
max/min kappa: 1/1
ExecutionTime = 0.22 s  ClockTime = 0 s

Mean and max Acoustic Courant Numbers = 0.00472122 0.0111754
Courant Number max : 0.00129217 velocity magnitude: 19.7055
Time = 2.7e-06

diagonal:  Solving for rho, Initial residual = 0, Final residual = 0, No Iterations 0
rho max/min : 0.83124 / 0.710718
DILUPBiCG:  Solving for h, Initial residual = 0.0133601, Final residual = 1.28152e-12, No Iterations 2
max/min T: 290.643/287.489
DILUPBiCG:  Solving for p, Initial residual = 0.000105748, Final residual = 4.4781e-10, No Iterations 1
max(U): (5.58535 0.000128354 2.11355e-33)
max/min p: 68970/58970
diagonal:  Solving for rho, Initial residual = 0, Final residual = 0, No Iterations 0
rho max/min : 0.83124 / 0.710718
time step continuity errors : sum local = 6.95483e-11, global = -1.23694e-11, cumulative = -1.32952e-10
max/min FaceSonicCourant: 0.0223507/0.00566594
max/min kappa: 1/1
ExecutionTime = 0.23 s  ClockTime = 0 s

Mean and max Acoustic Courant Numbers = 0.00472128 0.0111754
Courant Number max : 0.00128338 velocity magnitude: 19.5715
Time = 2.8e-06

diagonal:  Solving for rho, Initial residual = 0, Final residual = 0, No Iterations 0
rho max/min : 0.83124 / 0.710718
DILUPBiCG:  Solving for h, Initial residual = 0.0127403, Final residual = 1.30583e-12, No Iterations 2
max/min T: 290.673/287.456
DILUPBiCG:  Solving for p, Initial residual = 0.000104753, Final residual = 4.42172e-10, No Iterations 1
max(U): (5.76692 0.000132369 2.11436e-33)
max/min p: 68970/58970
diagonal:  Solving for rho, Initial residual = 0, Final residual = 0, No Iterations 0
rho max/min : 0.83124 / 0.710718
time step continuity errors : sum local = 6.86581e-11, global = -1.244e-11, cumulative = -1.45392e-10
max/min FaceSonicCourant: 0.0223507/0.00566562
max/min kappa: 1/1
ExecutionTime = 0.23 s  ClockTime = 0 s

Mean and max Acoustic Courant Numbers = 0.00472134 0.0111754
Courant Number max : 0.00127509 velocity magnitude: 19.4451
Time = 2.9e-06

diagonal:  Solving for rho, Initial residual = 0, Final residual = 0, No Iterations 0
rho max/min : 0.83124 / 0.710718
DILUPBiCG:  Solving for h, Initial residual = 0.012172, Final residual = 1.25837e-12, No Iterations 2
max/min T: 290.703/287.425
DILUPBiCG:  Solving for p, Initial residual = 0.000103812, Final residual = 4.36598e-10, No Iterations 1
max(U): (5.94665 0.000136388 2.11576e-33)
max/min p: 68970/58970
diagonal:  Solving for rho, Initial residual = 0, Final residual = 0, No Iterations 0
rho max/min : 0.83124 / 0.710718
time step continuity errors : sum local = 6.77785e-11, global = -1.24977e-11, cumulative = -1.5789e-10
max/min FaceSonicCourant: 0.0223507/0.00566531
max/min kappa: 1/1
ExecutionTime = 0.24 s  ClockTime = 0 s

Mean and max Acoustic Courant Numbers = 0.0047214 0.0111754
Courant Number max : 0.00126729 velocity magnitude: 19.3261
Time = 3e-06

diagonal:  Solving for rho, Initial residual = 0, Final residual = 0, No Iterations 0
rho max/min : 0.83124 / 0.710718
DILUPBiCG:  Solving for h, Initial residual = 0.0116502, Final residual = 1.21344e-12, No Iterations 2
max/min T: 290.73/287.395
DILUPBiCG:  Solving for p, Initial residual = 0.000102924, Final residual = 4.31329e-10, No Iterations 1
max(U): (6.12455 0.000140416 2.11653e-33)
max/min p: 68970/58970
diagonal:  Solving for rho, Initial residual = 0, Final residual = 0, No Iterations 0
rho max/min : 0.83124 / 0.710718
time step continuity errors : sum local = 6.69466e-11, global = -1.25431e-11, cumulative = -1.70433e-10
max/min FaceSonicCourant: 0.0223507/0.00566502
max/min kappa: 1/1
ExecutionTime = 0.25 s  ClockTime = 0 s

Mean and max Acoustic Courant Numbers = 0.00472146 0.0111754
Courant Number max : 0.00125994 velocity magnitude: 19.2141
Time = 3.1e-06

diagonal:  Solving for rho, Initial residual = 0, Final residual = 0, No Iterations 0
rho max/min : 0.83124 / 0.710718
DILUPBiCG:  Solving for h, Initial residual = 0.0111698, Final residual = 1.16759e-12, No Iterations 2
max/min T: 290.757/287.366
DILUPBiCG:  Solving for p, Initial residual = 0.000102086, Final residual = 4.36842e-10, No Iterations 1
max(U): (6.3006 0.000144459 2.11753e-33)
max/min p: 68970/58970
diagonal:  Solving for rho, Initial residual = 0, Final residual = 0, No Iterations 0
rho max/min : 0.83124 / 0.710718
time step continuity errors : sum local = 6.77882e-11, global = -1.11763e-11, cumulative = -1.8161e-10
max/min FaceSonicCourant: 0.0223507/0.00566473
max/min kappa: 1/1
ExecutionTime = 0.25 s  ClockTime = 0 s

Mean and max Acoustic Courant Numbers = 0.00472152 0.0111754
Courant Number max : 0.00125304 velocity magnitude: 19.1089
Time = 3.2e-06

diagonal:  Solving for rho, Initial residual = 0, Final residual = 0, No Iterations 0
rho max/min : 0.83124 / 0.710718
DILUPBiCG:  Solving for h, Initial residual = 0.0107268, Final residual = 1.12223e-12, No Iterations 2
max/min T: 290.782/287.338
DILUPBiCG:  Solving for p, Initial residual = 0.000101297, Final residual = 4.33541e-10, No Iterations 1
max(U): (6.47483 0.000154008 2.11789e-33)
max/min p: 68970/58970
diagonal:  Solving for rho, Initial residual = 0, Final residual = 0, No Iterations 0
rho max/min : 0.83124 / 0.710718
time step continuity errors : sum local = 6.72622e-11, global = -1.12034e-11, cumulative = -1.92813e-10
max/min FaceSonicCourant: 0.0223507/0.00566446
max/min kappa: 1/1
ExecutionTime = 0.26 s  ClockTime = 1 s

Mean and max Acoustic Courant Numbers = 0.00472158 0.0111754
Courant Number max : 0.00124656 velocity magnitude: 19.0101
Time = 3.3e-06

diagonal:  Solving for rho, Initial residual = 0, Final residual = 0, No Iterations 0
rho max/min : 0.83124 / 0.710718
DILUPBiCG:  Solving for h, Initial residual = 0.0103174, Final residual = 9.97846e-13, No Iterations 2
max/min T: 290.805/287.312
DILUPBiCG:  Solving for p, Initial residual = 0.000100553, Final residual = 4.30439e-10, No Iterations 1
max(U): (6.64723 0.000168439 2.11875e-33)
max/min p: 68970/58970
diagonal:  Solving for rho, Initial residual = 0, Final residual = 0, No Iterations 0
rho max/min : 0.83124 / 0.710718
time step continuity errors : sum local = 6.67674e-11, global = -1.12216e-11, cumulative = -2.04035e-10
max/min FaceSonicCourant: 0.0223507/0.0056642
max/min kappa: 1/1
ExecutionTime = 0.26 s  ClockTime = 1 s

Mean and max Acoustic Courant Numbers = 0.00472164 0.0111754
Courant Number max : 0.00124048 velocity magnitude: 18.9174
Time = 3.4e-06

diagonal:  Solving for rho, Initial residual = 0, Final residual = 0, No Iterations 0
rho max/min : 0.83124 / 0.710718
DILUPBiCG:  Solving for h, Initial residual = 0.00993833, Final residual = 9.63693e-13, No Iterations 2
max/min T: 290.828/287.286
DILUPBiCG:  Solving for p, Initial residual = 9.98535e-05, Final residual = 4.27241e-10, No Iterations 1
max(U): (6.81782 0.000183562 2.11969e-33)
max/min p: 68970/58970
diagonal:  Solving for rho, Initial residual = 0, Final residual = 0, No Iterations 0
rho max/min : 0.83124 / 0.710718
time step continuity errors : sum local = 6.62579e-11, global = -1.1718e-11, cumulative = -2.15753e-10
max/min FaceSonicCourant: 0.0223507/0.00566394
max/min kappa: 1/1
ExecutionTime = 0.27 s  ClockTime = 1 s

Mean and max Acoustic Courant Numbers = 0.00472169 0.0111754
Courant Number max : 0.00123479 velocity magnitude: 18.8305
Time = 3.5e-06

diagonal:  Solving for rho, Initial residual = 0, Final residual = 0, No Iterations 0
rho max/min : 0.83124 / 0.710718
DILUPBiCG:  Solving for h, Initial residual = 0.00958676, Final residual = 9.31874e-13, No Iterations 2
max/min T: 290.849/287.262
DILUPBiCG:  Solving for p, Initial residual = 9.91961e-05, Final residual = 4.23516e-10, No Iterations 1
max(U): (6.98661 0.000199369 2.11983e-33)
max/min p: 68970/58970
diagonal:  Solving for rho, Initial residual = 0, Final residual = 0, No Iterations 0
rho max/min : 0.83124 / 0.710718
time step continuity errors : sum local = 6.5667e-11, global = -1.17535e-11, cumulative = -2.27506e-10
max/min FaceSonicCourant: 0.0223507/0.0056637
max/min kappa: 1/1
ExecutionTime = 0.29 s  ClockTime = 1 s

Mean and max Acoustic Courant Numbers = 0.00472175 0.0111754
Courant Number max : 0.00122946 velocity magnitude: 18.7493
Time = 3.6e-06

diagonal:  Solving for rho, Initial residual = 0, Final residual = 0, No Iterations 0
rho max/min : 0.83124 / 0.710718
DILUPBiCG:  Solving for h, Initial residual = 0.0092602, Final residual = 9.01461e-13, No Iterations 2
max/min T: 290.869/287.238
DILUPBiCG:  Solving for p, Initial residual = 9.8579e-05, Final residual = 4.1949e-10, No Iterations 1
max(U): (7.15359 0.000215854 2.12101e-33)
max/min p: 68970/58970
diagonal:  Solving for rho, Initial residual = 0, Final residual = 0, No Iterations 0
rho max/min : 0.83124 / 0.710718
time step continuity errors : sum local = 6.50298e-11, global = -1.17829e-11, cumulative = -2.39289e-10
max/min FaceSonicCourant: 0.0223507/0.00566347
max/min kappa: 1/1
ExecutionTime = 0.29 s  ClockTime = 1 s

Mean and max Acoustic Courant Numbers = 0.00472181 0.0111754
Courant Number max : 0.00122449 velocity magnitude: 18.6735
Time = 3.7e-06

diagonal:  Solving for rho, Initial residual = 0, Final residual = 0, No Iterations 0
rho max/min : 0.83124 / 0.710718
DILUPBiCG:  Solving for h, Initial residual = 0.00895639, Final residual = 8.71899e-13, No Iterations 2
max/min T: 290.887/287.215
DILUPBiCG:  Solving for p, Initial residual = 9.80004e-05, Final residual = 4.15214e-10, No Iterations 1
max(U): (7.31878 0.000233004 2.12496e-33)
max/min p: 68970/58970
diagonal:  Solving for rho, Initial residual = 0, Final residual = 0, No Iterations 0
rho max/min : 0.83124 / 0.710718
time step continuity errors : sum local = 6.43542e-11, global = -1.18068e-11, cumulative = -2.51096e-10
max/min FaceSonicCourant: 0.0223507/0.00566325
max/min kappa: 1/1
ExecutionTime = 0.3 s  ClockTime = 1 s

Mean and max Acoustic Courant Numbers = 0.00472186 0.0111754
Courant Number max : 0.00121986 velocity magnitude: 18.6028
Time = 3.8e-06

diagonal:  Solving for rho, Initial residual = 0, Final residual = 0, No Iterations 0
rho max/min : 0.83124 / 0.710718
DILUPBiCG:  Solving for h, Initial residual = 0.00867338, Final residual = 8.39077e-13, No Iterations 2
max/min T: 290.905/287.194
DILUPBiCG:  Solving for p, Initial residual = 9.74588e-05, Final residual = 4.10732e-10, No Iterations 1
max(U): (7.4822 0.00025081 2.11169e-33)
max/min p: 68970/58970
diagonal:  Solving for rho, Initial residual = 0, Final residual = 0, No Iterations 0
rho max/min : 0.83124 / 0.710718
time step continuity errors : sum local = 6.36471e-11, global = -1.18254e-11, cumulative = -2.62921e-10
max/min FaceSonicCourant: 0.0223507/0.00566303
max/min kappa: 1/1
ExecutionTime = 0.31 s  ClockTime = 1 s

Mean and max Acoustic Courant Numbers = 0.00472192 0.0111754
Courant Number max : 0.00121554 velocity magnitude: 18.537
Time = 3.9e-06

diagonal:  Solving for rho, Initial residual = 0, Final residual = 0, No Iterations 0
rho max/min : 0.83124 / 0.710718
DILUPBiCG:  Solving for h, Initial residual = 0.00840938, Final residual = 8.08354e-13, No Iterations 2
max/min T: 290.922/287.173
DILUPBiCG:  Solving for p, Initial residual = 9.69524e-05, Final residual = 4.06082e-10, No Iterations 1
max(U): (7.64384 0.000269259 2.11143e-33)
max/min p: 68970/58970
diagonal:  Solving for rho, Initial residual = 0, Final residual = 0, No Iterations 0
rho max/min : 0.83124 / 0.710718
time step continuity errors : sum local = 6.29142e-11, global = -1.18392e-11, cumulative = -2.74761e-10
max/min FaceSonicCourant: 0.0223507/0.00566283
max/min kappa: 1/1
ExecutionTime = 0.31 s  ClockTime = 1 s

Mean and max Acoustic Courant Numbers = 0.00472198 0.0111754
Courant Number max : 0.00121154 velocity magnitude: 18.4759
Time = 4e-06

diagonal:  Solving for rho, Initial residual = 0, Final residual = 0, No Iterations 0
rho max/min : 0.83124 / 0.710718
DILUPBiCG:  Solving for h, Initial residual = 0.00816282, Final residual = 7.78163e-13, No Iterations 2
max/min T: 290.938/287.153
DILUPBiCG:  Solving for p, Initial residual = 9.64798e-05, Final residual = 4.01305e-10, No Iterations 1
max(U): (7.80373 0.000288339 2.11107e-33)
max/min p: 68970/58970
diagonal:  Solving for rho, Initial residual = 0, Final residual = 0, No Iterations 0
rho max/min : 0.83124 / 0.710718
time step continuity errors : sum local = 6.2162e-11, global = -1.18501e-11, cumulative = -2.86611e-10
max/min FaceSonicCourant: 0.0223507/0.00566263
max/min kappa: 1/1
ExecutionTime = 0.32 s  ClockTime = 1 s

Mean and max Acoustic Courant Numbers = 0.00472203 0.0111754
Courant Number max : 0.00120782 velocity magnitude: 18.4193
Time = 4.1e-06

diagonal:  Solving for rho, Initial residual = 0, Final residual = 0, No Iterations 0
rho max/min : 0.83124 / 0.710718
DILUPBiCG:  Solving for h, Initial residual = 0.00793228, Final residual = 7.48116e-13, No Iterations 2
max/min T: 290.953/287.133
DILUPBiCG:  Solving for p, Initial residual = 9.60395e-05, Final residual = 3.96413e-10, No Iterations 1
max(U): (7.96187 0.000308034 2.11067e-33)
max/min p: 68970/58970
diagonal:  Solving for rho, Initial residual = 0, Final residual = 0, No Iterations 0
rho max/min : 0.83124 / 0.710718
time step continuity errors : sum local = 6.13922e-11, global = -1.18556e-11, cumulative = -2.98466e-10
max/min FaceSonicCourant: 0.0223507/0.00566244
max/min kappa: 1/1
ExecutionTime = 0.32 s  ClockTime = 1 s

Mean and max Acoustic Courant Numbers = 0.00472208 0.0111754
Courant Number max : 0.00120439 velocity magnitude: 18.367
Time = 4.2e-06

diagonal:  Solving for rho, Initial residual = 0, Final residual = 0, No Iterations 0
rho max/min : 0.83124 / 0.710718
DILUPBiCG:  Solving for h, Initial residual = 0.00771648, Final residual = 7.17767e-13, No Iterations 2
max/min T: 290.967/287.115
DILUPBiCG:  Solving for p, Initial residual = 9.56302e-05, Final residual = 3.91435e-10, No Iterations 1
max(U): (8.11827 0.000328332 2.11051e-33)
max/min p: 68970/58970
diagonal:  Solving for rho, Initial residual = 0, Final residual = 0, No Iterations 0
rho max/min : 0.83124 / 0.710718
time step continuity errors : sum local = 6.06096e-11, global = -1.18573e-11, cumulative = -3.10323e-10
max/min FaceSonicCourant: 0.0223507/0.00566225
max/min kappa: 1/1
ExecutionTime = 0.33 s  ClockTime = 1 s

Mean and max Acoustic Courant Numbers = 0.00472214 0.0111754
Courant Number max : 0.00120123 velocity magnitude: 18.3188
Time = 4.3e-06

diagonal:  Solving for rho, Initial residual = 0, Final residual = 0, No Iterations 0
rho max/min : 0.83124 / 0.710718
DILUPBiCG:  Solving for h, Initial residual = 0.00751426, Final residual = 7.25219e-13, No Iterations 2
max/min T: 290.98/287.097
DILUPBiCG:  Solving for p, Initial residual = 9.52504e-05, Final residual = 3.86392e-10, No Iterations 1
max(U): (8.27295 0.000349216 2.11011e-33)
max/min p: 68970/58970
diagonal:  Solving for rho, Initial residual = 0, Final residual = 0, No Iterations 0
rho max/min : 0.83124 / 0.710718
time step continuity errors : sum local = 5.98174e-11, global = -1.18555e-11, cumulative = -3.22179e-10
max/min FaceSonicCourant: 0.0223507/0.00566208
max/min kappa: 1/1
ExecutionTime = 0.33 s  ClockTime = 1 s

Mean and max Acoustic Courant Numbers = 0.00472219 0.0111754
Courant Number max : 0.00119833 velocity magnitude: 18.2745
Time = 4.4e-06

diagonal:  Solving for rho, Initial residual = 0, Final residual = 0, No Iterations 0
rho max/min : 0.83124 / 0.710718
DILUPBiCG:  Solving for h, Initial residual = 0.00732458, Final residual = 6.85228e-13, No Iterations 2
max/min T: 290.992/287.08
DILUPBiCG:  Solving for p, Initial residual = 9.48989e-05, Final residual = 3.81304e-10, No Iterations 1
max(U): (8.42592 0.000370672 2.10968e-33)
max/min p: 68970/58970
diagonal:  Solving for rho, Initial residual = 0, Final residual = 0, No Iterations 0
rho max/min : 0.83124 / 0.710718
time step continuity errors : sum local = 5.90183e-11, global = -1.18506e-11, cumulative = -3.3403e-10
max/min FaceSonicCourant: 0.0223507/0.00566191
max/min kappa: 1/1
ExecutionTime = 0.34 s  ClockTime = 1 s

Mean and max Acoustic Courant Numbers = 0.00472224 0.0111754
Courant Number max : 0.00119567 velocity magnitude: 18.234
Time = 4.5e-06

diagonal:  Solving for rho, Initial residual = 0, Final residual = 0, No Iterations 0
rho max/min : 0.83124 / 0.710718
DILUPBiCG:  Solving for h, Initial residual = 0.0071465, Final residual = 6.49769e-13, No Iterations 2
max/min T: 291.003/287.063
DILUPBiCG:  Solving for p, Initial residual = 9.45746e-05, Final residual = 3.76191e-10, No Iterations 1
max(U): (8.57719 0.000392682 2.10923e-33)
max/min p: 68970/58970
diagonal:  Solving for rho, Initial residual = 0, Final residual = 0, No Iterations 0
rho max/min : 0.83124 / 0.710718
time step continuity errors : sum local = 5.82159e-11, global = -1.18427e-11, cumulative = -3.45872e-10
max/min FaceSonicCourant: 0.0223507/0.00566175
max/min kappa: 1/1
ExecutionTime = 0.35 s  ClockTime = 1 s

Mean and max Acoustic Courant Numbers = 0.00472229 0.0111754
Courant Number max : 0.00119325 velocity magnitude: 18.197
Time = 4.6e-06

diagonal:  Solving for rho, Initial residual = 0, Final residual = 0, No Iterations 0
rho max/min : 0.83124 / 0.710718
DILUPBiCG:  Solving for h, Initial residual = 0.00697915, Final residual = 6.13349e-13, No Iterations 2
max/min T: 291.014/287.047
DILUPBiCG:  Solving for p, Initial residual = 9.42762e-05, Final residual = 3.71067e-10, No Iterations 1
max(U): (8.72678 0.000415229 2.10836e-33)
max/min p: 68970/58970
diagonal:  Solving for rho, Initial residual = 0, Final residual = 0, No Iterations 0
rho max/min : 0.83124 / 0.710718
time step continuity errors : sum local = 5.74121e-11, global = -1.18321e-11, cumulative = -3.57704e-10
max/min FaceSonicCourant: 0.0223507/0.00566159
max/min kappa: 1/1
ExecutionTime = 0.35 s  ClockTime = 1 s

Mean and max Acoustic Courant Numbers = 0.00472235 0.0111754
Courant Number max : 0.00119105 velocity magnitude: 18.1635
Time = 4.7e-06

diagonal:  Solving for rho, Initial residual = 0, Final residual = 0, No Iterations 0
rho max/min : 0.83124 / 0.710718
DILUPBiCG:  Solving for h, Initial residual = 0.00682176, Final residual = 5.76331e-13, No Iterations 2
max/min T: 291.024/287.032
DILUPBiCG:  Solving for p, Initial residual = 9.40026e-05, Final residual = 3.65944e-10, No Iterations 1
max(U): (8.87469 0.000438297 2.10813e-33)
max/min p: 68970/58970
diagonal:  Solving for rho, Initial residual = 0, Final residual = 0, No Iterations 0
rho max/min : 0.83124 / 0.710718
time step continuity errors : sum local = 5.66087e-11, global = -1.18188e-11, cumulative = -3.69523e-10
max/min FaceSonicCourant: 0.0223507/0.00566144
max/min kappa: 1/1
ExecutionTime = 0.36 s  ClockTime = 1 s

Mean and max Acoustic Courant Numbers = 0.0047224 0.0111754
Courant Number max : 0.00118907 velocity magnitude: 18.1333
Time = 4.8e-06

diagonal:  Solving for rho, Initial residual = 0, Final residual = 0, No Iterations 0
rho max/min : 0.83124 / 0.710718
DILUPBiCG:  Solving for h, Initial residual = 0.00667361, Final residual = 5.73086e-13, No Iterations 2
max/min T: 291.034/287.018
DILUPBiCG:  Solving for p, Initial residual = 9.37528e-05, Final residual = 3.50354e-10, No Iterations 1
max(U): (9.02095 0.000461867 2.10813e-33)
max/min p: 68970/58970
diagonal:  Solving for rho, Initial residual = 0, Final residual = 0, No Iterations 0
rho max/min : 0.83124 / 0.710718
time step continuity errors : sum local = 5.41868e-11, global = -8.50327e-12, cumulative = -3.78026e-10
max/min FaceSonicCourant: 0.0223507/0.0056613
max/min kappa: 1/1
ExecutionTime = 0.37 s  ClockTime = 1 s

Mean and max Acoustic Courant Numbers = 0.00472245 0.0111754
Courant Number max : 0.00118729 velocity magnitude: 18.1062
Time = 4.9e-06

diagonal:  Solving for rho, Initial residual = 0, Final residual = 0, No Iterations 0
rho max/min : 0.83124 / 0.710718
DILUPBiCG:  Solving for h, Initial residual = 0.00653404, Final residual = 5.35275e-13, No Iterations 2
max/min T: 291.042/287.003
DILUPBiCG:  Solving for p, Initial residual = 9.35258e-05, Final residual = 3.45732e-10, No Iterations 1
max(U): (9.16556 0.000485922 2.10813e-33)
max/min p: 68970/58970
diagonal:  Solving for rho, Initial residual = 0, Final residual = 0, No Iterations 0
rho max/min : 0.83124 / 0.710718
time step continuity errors : sum local = 5.3462e-11, global = -8.5034e-12, cumulative = -3.8653e-10
max/min FaceSonicCourant: 0.0223507/0.00566116
max/min kappa: 1/1
ExecutionTime = 0.37 s  ClockTime = 1 s

Mean and max Acoustic Courant Numbers = 0.0047225 0.0111754
Courant Number max : 0.00118571 velocity magnitude: 18.0821
Time = 5e-06

diagonal:  Solving for rho, Initial residual = 0, Final residual = 0, No Iterations 0
rho max/min : 0.83124 / 0.710718
DILUPBiCG:  Solving for h, Initial residual = 0.00640247, Final residual = 4.97839e-13, No Iterations 2
max/min T: 291.05/286.99
DILUPBiCG:  Solving for p, Initial residual = 9.33205e-05, Final residual = 3.41202e-10, No Iterations 1
max(U): (9.30854 0.000510444 2.10813e-33)
max/min p: 68970/58970
diagonal:  Solving for rho, Initial residual = 0, Final residual = 0, No Iterations 0
rho max/min : 0.83124 / 0.710718
time step continuity errors : sum local = 5.27515e-11, global = -8.50293e-12, cumulative = -3.95033e-10
max/min FaceSonicCourant: 0.0223507/0.00566102
max/min kappa: 1/1
ExecutionTime = 0.38 s  ClockTime = 1 s

Mean and max Acoustic Courant Numbers = 0.00472255 0.0111754
Courant Number max : 0.00118432 velocity magnitude: 18.0609
Time = 5.1e-06

diagonal:  Solving for rho, Initial residual = 0, Final residual = 0, No Iterations 0
rho max/min : 0.83124 / 0.710718
DILUPBiCG:  Solving for h, Initial residual = 0.00627833, Final residual = 4.58584e-13, No Iterations 2
max/min T: 291.058/286.977
DILUPBiCG:  Solving for p, Initial residual = 9.31361e-05, Final residual = 3.36766e-10, No Iterations 1
max(U): (9.44991 0.000535415 2.10813e-33)
max/min p: 68970/58970
diagonal:  Solving for rho, Initial residual = 0, Final residual = 0, No Iterations 0
rho max/min : 0.83124 / 0.710718
time step continuity errors : sum local = 5.2056e-11, global = -8.502e-12, cumulative = -4.03535e-10
max/min FaceSonicCourant: 0.0223507/0.00566089
max/min kappa: 1/1
ExecutionTime = 0.38 s  ClockTime = 1 s

Mean and max Acoustic Courant Numbers = 0.0047226 0.0111754
Courant Number max : 0.00118311 velocity magnitude: 18.0425
Time = 5.2e-06

diagonal:  Solving for rho, Initial residual = 0, Final residual = 0, No Iterations 0
rho max/min : 0.83124 / 0.710718
DILUPBiCG:  Solving for h, Initial residual = 0.00616114, Final residual = 4.16799e-13, No Iterations 2
max/min T: 291.065/286.964
DILUPBiCG:  Solving for p, Initial residual = 9.29716e-05, Final residual = 3.32495e-10, No Iterations 1
max(U): (9.58967 0.000560816 2.10813e-33)
max/min p: 68970/58970
diagonal:  Solving for rho, Initial residual = 0, Final residual = 0, No Iterations 0
rho max/min : 0.83124 / 0.710718
time step continuity errors : sum local = 5.13862e-11, global = -8.50015e-12, cumulative = -4.12035e-10
max/min FaceSonicCourant: 0.0223507/0.00566077
max/min kappa: 1/1
ExecutionTime = 0.39 s  ClockTime = 1 s

Mean and max Acoustic Courant Numbers = 0.00472265 0.0111754
Courant Number max : 0.00118208 velocity magnitude: 18.0267
Time = 5.3e-06

diagonal:  Solving for rho, Initial residual = 0, Final residual = 0, No Iterations 0
rho max/min : 0.83124 / 0.710718
DILUPBiCG:  Solving for h, Initial residual = 0.00605042, Final residual = 3.71498e-13, No Iterations 2
max/min T: 291.071/286.952
DILUPBiCG:  Solving for p, Initial residual = 9.28264e-05, Final residual = 3.29001e-10, No Iterations 1
max(U): (9.72785 0.000586629 2.10813e-33)
max/min p: 68970/58970
diagonal:  Solving for rho, Initial residual = 0, Final residual = 0, No Iterations 0
rho max/min : 0.83124 / 0.710718
time step continuity errors : sum local = 5.08366e-11, global = -8.49778e-12, cumulative = -4.20533e-10
max/min FaceSonicCourant: 0.0223507/0.00566065
max/min kappa: 1/1
ExecutionTime = 0.4 s  ClockTime = 1 s

Mean and max Acoustic Courant Numbers = 0.00472269 0.0111754
Courant Number max : 0.0011812 velocity magnitude: 18.0134
Time = 5.4e-06

diagonal:  Solving for rho, Initial residual = 0, Final residual = 0, No Iterations 0
rho max/min : 0.83124 / 0.710718
DILUPBiCG:  Solving for h, Initial residual = 0.00594574, Final residual = 3.38674e-13, No Iterations 2
max/min T: 291.077/286.941
DILUPBiCG:  Solving for p, Initial residual = 9.26994e-05, Final residual = 3.25851e-10, No Iterations 1
max(U): (9.86446 0.000612835 2.10813e-33)
max/min p: 68970/58970
diagonal:  Solving for rho, Initial residual = 0, Final residual = 0, No Iterations 0
rho max/min : 0.83124 / 0.710718
time step continuity errors : sum local = 5.03405e-11, global = -8.49501e-12, cumulative = -4.29028e-10
max/min FaceSonicCourant: 0.0223507/0.00566054
max/min kappa: 1/1
ExecutionTime = 0.41 s  ClockTime = 1 s

Mean and max Acoustic Courant Numbers = 0.00472274 0.0111754
Courant Number max : 0.00118049 velocity magnitude: 18.0025
Time = 5.5e-06

diagonal:  Solving for rho, Initial residual = 0, Final residual = 0, No Iterations 0
rho max/min : 0.83124 / 0.710718
DILUPBiCG:  Solving for h, Initial residual = 0.00584672, Final residual = 3.16264e-13, No Iterations 2
max/min T: 291.082/286.929
DILUPBiCG:  Solving for p, Initial residual = 9.259e-05, Final residual = 3.2333e-10, No Iterations 1
max(U): (9.99951 0.000639416 2.10813e-33)
max/min p: 68970/58970
diagonal:  Solving for rho, Initial residual = 0, Final residual = 0, No Iterations 0
rho max/min : 0.83124 / 0.710718
time step continuity errors : sum local = 4.99417e-11, global = -8.49187e-12, cumulative = -4.3752e-10
max/min FaceSonicCourant: 0.0223507/0.00566043
max/min kappa: 1/1
ExecutionTime = 0.42 s  ClockTime = 1 s

Mean and max Acoustic Courant Numbers = 0.00472279 0.0111754
Courant Number max : 0.00117992 velocity magnitude: 17.9939
Time = 5.6e-06

diagonal:  Solving for rho, Initial residual = 0, Final residual = 0, No Iterations 0
rho max/min : 0.83124 / 0.710718
DILUPBiCG:  Solving for h, Initial residual = 0.00575299, Final residual = 3.31891e-13, No Iterations 2
max/min T: 291.087/286.919
DILUPBiCG:  Solving for p, Initial residual = 9.24973e-05, Final residual = 3.2081e-10, No Iterations 1
max(U): (10.133 0.000666353 2.10813e-33)
max/min p: 68970/58970
diagonal:  Solving for rho, Initial residual = 0, Final residual = 0, No Iterations 0
rho max/min : 0.83124 / 0.710718
time step continuity errors : sum local = 4.95433e-11, global = -8.48843e-12, cumulative = -4.46008e-10
max/min FaceSonicCourant: 0.0223507/0.00566032
max/min kappa: 1/1
ExecutionTime = 0.42 s  ClockTime = 1 s

Mean and max Acoustic Courant Numbers = 0.00472284 0.0111754
Courant Number max : 0.0011795 velocity magnitude: 17.9874
Time = 5.7e-06

diagonal:  Solving for rho, Initial residual = 0, Final residual = 0, No Iterations 0
rho max/min : 0.83124 / 0.710718
DILUPBiCG:  Solving for h, Initial residual = 0.00566421, Final residual = 3.95632e-13, No Iterations 2
max/min T: 291.092/286.908
DILUPBiCG:  Solving for p, Initial residual = 9.24208e-05, Final residual = 3.18449e-10, No Iterations 1
max(U): (10.265 0.000693628 2.10813e-33)
max/min p: 68970/58970
diagonal:  Solving for rho, Initial residual = 0, Final residual = 0, No Iterations 0
rho max/min : 0.83124 / 0.710718
time step continuity errors : sum local = 4.91695e-11, global = -8.48472e-12, cumulative = -4.54493e-10
max/min FaceSonicCourant: 0.0223507/0.00566022
max/min kappa: 1/1
ExecutionTime = 0.43 s  ClockTime = 1 s

Mean and max Acoustic Courant Numbers = 0.00472289 0.0111754
Courant Number max : 0.00117922 velocity magnitude: 17.9832
Time = 5.8e-06

diagonal:  Solving for rho, Initial residual = 0, Final residual = 0, No Iterations 0
rho max/min : 0.83124 / 0.710718
DILUPBiCG:  Solving for h, Initial residual = 0.00558007, Final residual = 5.36385e-13, No Iterations 2
max/min T: 291.095/286.898
DILUPBiCG:  Solving for p, Initial residual = 9.23597e-05, Final residual = 3.16329e-10, No Iterations 1
max(U): (10.3955 0.000721223 2.10961e-33)
max/min p: 68970/58970
diagonal:  Solving for rho, Initial residual = 0, Final residual = 0, No Iterations 0
rho max/min : 0.83124 / 0.710718
time step continuity errors : sum local = 4.88332e-11, global = -8.48079e-12, cumulative = -4.62974e-10
max/min FaceSonicCourant: 0.0223507/0.00566012
max/min kappa: 1/1
ExecutionTime = 0.43 s  ClockTime = 1 s

Mean and max Acoustic Courant Numbers = 0.00472293 0.0111754
Courant Number max : 0.00117907 velocity magnitude: 17.9809
Time = 5.9e-06

diagonal:  Solving for rho, Initial residual = 0, Final residual = 0, No Iterations 0
rho max/min : 0.83124 / 0.710718
DILUPBiCG:  Solving for h, Initial residual = 0.00550029, Final residual = 8.1618e-13, No Iterations 2
max/min T: 291.099/286.889
DILUPBiCG:  Solving for p, Initial residual = 9.23134e-05, Final residual = 3.14204e-10, No Iterations 1
max(U): (10.5245 0.000749118 2.11406e-33)
max/min p: 68970/58970
diagonal:  Solving for rho, Initial residual = 0, Final residual = 0, No Iterations 0
rho max/min : 0.83124 / 0.710718
time step continuity errors : sum local = 4.84962e-11, global = -8.47725e-12, cumulative = -4.71451e-10
max/min FaceSonicCourant: 0.0223507/0.00566003
max/min kappa: 1/1
ExecutionTime = 0.44 s  ClockTime = 1 s

Mean and max Acoustic Courant Numbers = 0.00472298 0.0111754
Courant Number max : 0.00117905 velocity magnitude: 17.9805
Time = 6e-06

diagonal:  Solving for rho, Initial residual = 0, Final residual = 0, No Iterations 0
rho max/min : 0.83124 / 0.710718
DILUPBiCG:  Solving for h, Initial residual = 0.00542459, Final residual = 1.34581e-12, No Iterations 2
max/min T: 291.102/286.88
DILUPBiCG:  Solving for p, Initial residual = 9.22812e-05, Final residual = 3.12071e-10, No Iterations 1
max(U): (10.652 0.000777297 2.11406e-33)
max/min p: 68970/58970
diagonal:  Solving for rho, Initial residual = 0, Final residual = 0, No Iterations 0
rho max/min : 0.83124 / 0.710718
time step continuity errors : sum local = 4.81581e-11, global = -8.47291e-12, cumulative = -4.79924e-10
max/min FaceSonicCourant: 0.0223507/0.00565994
max/min kappa: 1/1
ExecutionTime = 0.45 s  ClockTime = 1 s

Mean and max Acoustic Courant Numbers = 0.00472302 0.0111754
Courant Number max : 0.00117915 velocity magnitude: 17.982
Time = 6.1e-06

diagonal:  Solving for rho, Initial residual = 0, Final residual = 0, No Iterations 0
rho max/min : 0.83124 / 0.710718
DILUPBiCG:  Solving for h, Initial residual = 0.00535272, Final residual = 2.75912e-12, No Iterations 2
max/min T: 291.105/286.871
DILUPBiCG:  Solving for p, Initial residual = 9.22626e-05, Final residual = 3.09936e-10, No Iterations 1
max(U): (10.778 0.00080574 2.13676e-33)
max/min p: 68970/58970
diagonal:  Solving for rho, Initial residual = 0, Final residual = 0, No Iterations 0
rho max/min : 0.83124 / 0.710718
time step continuity errors : sum local = 4.78197e-11, global = -8.46841e-12, cumulative = -4.88392e-10
max/min FaceSonicCourant: 0.0223507/0.00565985
max/min kappa: 1/1
ExecutionTime = 0.45 s  ClockTime = 1 s

Mean and max Acoustic Courant Numbers = 0.00472307 0.0111754
Courant Number max : 0.00117937 velocity magnitude: 17.9854
Time = 6.2e-06

diagonal:  Solving for rho, Initial residual = 0, Final residual = 0, No Iterations 0
rho max/min : 0.83124 / 0.710718
DILUPBiCG:  Solving for h, Initial residual = 0.00528445, Final residual = 1.37246e-11, No Iterations 2
max/min T: 291.107/286.862
DILUPBiCG:  Solving for p, Initial residual = 9.2257e-05, Final residual = 3.11594e-10, No Iterations 1
max(U): (10.9026 0.00083443 2.13352e-33)
max/min p: 68970/58970
diagonal:  Solving for rho, Initial residual = 0, Final residual = 0, No Iterations 0
rho max/min : 0.83124 / 0.710718
time step continuity errors : sum local = 4.80666e-11, global = -5.73761e-12, cumulative = -4.9413e-10
max/min FaceSonicCourant: 0.0223507/0.00565976
max/min kappa: 1/1
ExecutionTime = 0.46 s  ClockTime = 1 s

Mean and max Acoustic Courant Numbers = 0.00472311 0.0111754
Courant Number max : 0.00117969 velocity magnitude: 17.9903
Time = 6.3e-06

diagonal:  Solving for rho, Initial residual = 0, Final residual = 0, No Iterations 0
rho max/min : 0.83124 / 0.710718
DILUPBiCG:  Solving for h, Initial residual = 0.00521958, Final residual = 6.6555e-12, No Iterations 2
max/min T: 291.109/286.854
DILUPBiCG:  Solving for p, Initial residual = 9.22638e-05, Final residual = 3.08726e-10, No Iterations 1
max(U): (11.0258 0.000863348 2.13162e-33)
max/min p: 68970/58970
diagonal:  Solving for rho, Initial residual = 0, Final residual = 0, No Iterations 0
rho max/min : 0.83124 / 0.710718
time step continuity errors : sum local = 4.76153e-11, global = -5.69826e-12, cumulative = -4.99828e-10
max/min FaceSonicCourant: 0.0223507/0.00565968
max/min kappa: 1/1
ExecutionTime = 0.47 s  ClockTime = 1 s

Mean and max Acoustic Courant Numbers = 0.00472316 0.0111754
Courant Number max : 0.00118013 velocity magnitude: 17.9969
Time = 6.4e-06

diagonal:  Solving for rho, Initial residual = 0, Final residual = 0, No Iterations 0
rho max/min : 0.83124 / 0.710718
DILUPBiCG:  Solving for h, Initial residual = 0.00515789, Final residual = 3.07352e-12, No Iterations 2
max/min T: 291.11/286.846
DILUPBiCG:  Solving for p, Initial residual = 9.22826e-05, Final residual = 3.05866e-10, No Iterations 1
max(U): (11.1475 0.000892478 2.1295e-33)
max/min p: 68970/58970
diagonal:  Solving for rho, Initial residual = 0, Final residual = 0, No Iterations 0
rho max/min : 0.83124 / 0.710718
time step continuity errors : sum local = 4.71656e-11, global = -5.65851e-12, cumulative = -5.05486e-10
max/min FaceSonicCourant: 0.0223507/0.00565961
max/min kappa: 1/1
ExecutionTime = 0.47 s  ClockTime = 1 s

Mean and max Acoustic Courant Numbers = 0.0047232 0.0111754
Courant Number max : 0.00118066 velocity magnitude: 18.0051
Time = 6.5e-06

diagonal:  Solving for rho, Initial residual = 0, Final residual = 0, No Iterations 0
rho max/min : 0.83124 / 0.710718
DILUPBiCG:  Solving for h, Initial residual = 0.0050992, Final residual = 2.15785e-12, No Iterations 2
max/min T: 291.111/286.839
DILUPBiCG:  Solving for p, Initial residual = 9.23128e-05, Final residual = 3.03026e-10, No Iterations 1
max(U): (11.2678 0.000921801 2.12807e-33)
max/min p: 68970/58970
diagonal:  Solving for rho, Initial residual = 0, Final residual = 0, No Iterations 0
rho max/min : 0.83124 / 0.710718
time step continuity errors : sum local = 4.6719e-11, global = -5.61823e-12, cumulative = -5.11105e-10
max/min FaceSonicCourant: 0.0223507/0.00565953
max/min kappa: 1/1
ExecutionTime = 0.48 s  ClockTime = 1 s

Mean and max Acoustic Courant Numbers = 0.00472325 0.0111754
Courant Number max : 0.00118129 velocity magnitude: 18.0147
Time = 6.6e-06

diagonal:  Solving for rho, Initial residual = 0, Final residual = 0, No Iterations 0
rho max/min : 0.83124 / 0.710718
DILUPBiCG:  Solving for h, Initial residual = 0.00504333, Final residual = 1.74073e-12, No Iterations 2
max/min T: 291.112/286.831
DILUPBiCG:  Solving for p, Initial residual = 9.2354e-05, Final residual = 3.00204e-10, No Iterations 1
max(U): (11.3868 0.0009513 2.12712e-33)
max/min p: 68970/58970
diagonal:  Solving for rho, Initial residual = 0, Final residual = 0, No Iterations 0
rho max/min : 0.83124 / 0.710718
time step continuity errors : sum local = 4.62753e-11, global = -5.57748e-12, cumulative = -5.16682e-10
max/min FaceSonicCourant: 0.0223507/0.00565946
max/min kappa: 1/1
ExecutionTime = 0.49 s  ClockTime = 1 s

Mean and max Acoustic Courant Numbers = 0.00472329 0.0111754
Courant Number max : 0.00118201 velocity magnitude: 18.0257
Time = 6.7e-06

diagonal:  Solving for rho, Initial residual = 0, Final residual = 0, No Iterations 0
rho max/min : 0.83124 / 0.710718
DILUPBiCG:  Solving for h, Initial residual = 0.00499013, Final residual = 1.50465e-12, No Iterations 2
max/min T: 291.113/286.824
DILUPBiCG:  Solving for p, Initial residual = 9.24057e-05, Final residual = 2.97396e-10, No Iterations 1
max(U): (11.5044 0.000980958 2.12652e-33)
max/min p: 68970/58970
diagonal:  Solving for rho, Initial residual = 0, Final residual = 0, No Iterations 0
rho max/min : 0.83124 / 0.710718
time step continuity errors : sum local = 4.58339e-11, global = -5.53624e-12, cumulative = -5.22218e-10
max/min FaceSonicCourant: 0.0223507/0.00565939
max/min kappa: 1/1
ExecutionTime = 0.49 s  ClockTime = 1 s

Mean and max Acoustic Courant Numbers = 0.00472334 0.0111754
Courant Number max : 0.00118282 velocity magnitude: 18.038
Time = 6.8e-06

diagonal:  Solving for rho, Initial residual = 0, Final residual = 0, No Iterations 0
rho max/min : 0.83124 / 0.710718
DILUPBiCG:  Solving for h, Initial residual = 0.00493943, Final residual = 1.35495e-12, No Iterations 2
max/min T: 291.113/286.818
DILUPBiCG:  Solving for p, Initial residual = 9.24674e-05, Final residual = 2.94595e-10, No Iterations 1
max(U): (11.6206 0.00101076 2.1258e-33)
max/min p: 68970/58970
diagonal:  Solving for rho, Initial residual = 0, Final residual = 0, No Iterations 0
rho max/min : 0.83124 / 0.710718
time step continuity errors : sum local = 4.53939e-11, global = -5.49449e-12, cumulative = -5.27713e-10
max/min FaceSonicCourant: 0.0223507/0.00565932
max/min kappa: 1/1
ExecutionTime = 0.5 s  ClockTime = 1 s

Mean and max Acoustic Courant Numbers = 0.00472338 0.0111754
Courant Number max : 0.00118371 velocity magnitude: 18.0516
Time = 6.9e-06

diagonal:  Solving for rho, Initial residual = 0, Final residual = 0, No Iterations 0
rho max/min : 0.83124 / 0.710718
DILUPBiCG:  Solving for h, Initial residual = 0.00491408, Final residual = 1.25354e-12, No Iterations 2
max/min T: 291.113/286.811
DILUPBiCG:  Solving for p, Initial residual = 9.25388e-05, Final residual = 2.91691e-10, No Iterations 1
max(U): (11.7355 0.00104068 2.12524e-33)
max/min p: 68970/58970
diagonal:  Solving for rho, Initial residual = 0, Final residual = 0, No Iterations 0
rho max/min : 0.83124 / 0.710718
time step continuity errors : sum local = 4.49381e-11, global = -5.41401e-12, cumulative = -5.33127e-10
max/min FaceSonicCourant: 0.0223507/0.00565926
max/min kappa: 1/1
ExecutionTime = 0.5 s  ClockTime = 1 s

Mean and max Acoustic Courant Numbers = 0.00472342 0.0111754
Courant Number max : 0.00118469 velocity magnitude: 18.0665
Time = 7e-06

diagonal:  Solving for rho, Initial residual = 0, Final residual = 0, No Iterations 0
rho max/min : 0.83124 / 0.710718
DILUPBiCG:  Solving for h, Initial residual = 0.00490811, Final residual = 1.18225e-12, No Iterations 2
max/min T: 291.112/286.805
DILUPBiCG:  Solving for p, Initial residual = 9.26194e-05, Final residual = 2.88785e-10, No Iterations 1
max(U): (11.8491 0.00107072 2.12462e-33)
max/min p: 68970/58970
diagonal:  Solving for rho, Initial residual = 0, Final residual = 0, No Iterations 0
rho max/min : 0.83124 / 0.710718
time step continuity errors : sum local = 4.44821e-11, global = -5.36798e-12, cumulative = -5.38495e-10
max/min FaceSonicCourant: 0.0223507/0.0056592
max/min kappa: 1/1
ExecutionTime = 0.51 s  ClockTime = 1 s

Mean and max Acoustic Courant Numbers = 0.00472347 0.0111754
Courant Number max : 0.00118574 velocity magnitude: 18.0825
Time = 7.1e-06

diagonal:  Solving for rho, Initial residual = 0, Final residual = 0, No Iterations 0
rho max/min : 0.83124 / 0.710718
DILUPBiCG:  Solving for h, Initial residual = 0.00490233, Final residual = 1.13134e-12, No Iterations 2
max/min T: 291.112/286.799
DILUPBiCG:  Solving for p, Initial residual = 9.27089e-05, Final residual = 2.85877e-10, No Iterations 1
max(U): (11.9613 0.00110084 2.12436e-33)
max/min p: 68970/58970
diagonal:  Solving for rho, Initial residual = 0, Final residual = 0, No Iterations 0
rho max/min : 0.83124 / 0.710718
time step continuity errors : sum local = 4.4026e-11, global = -5.32118e-12, cumulative = -5.43816e-10
max/min FaceSonicCourant: 0.0223507/0.00565914
max/min kappa: 1/1
ExecutionTime = 0.52 s  ClockTime = 1 s

Mean and max Acoustic Courant Numbers = 0.00472351 0.0111754
Courant Number max : 0.00118686 velocity magnitude: 18.0996
Time = 7.2e-06

diagonal:  Solving for rho, Initial residual = 0, Final residual = 0, No Iterations 0
rho max/min : 0.83124 / 0.710718
DILUPBiCG:  Solving for h, Initial residual = 0.00489675, Final residual = 1.09519e-12, No Iterations 2
max/min T: 291.111/286.793
DILUPBiCG:  Solving for p, Initial residual = 9.28069e-05, Final residual = 2.82963e-10, No Iterations 1
max(U): (12.0723 0.00113105 2.12407e-33)
max/min p: 68970/58970
diagonal:  Solving for rho, Initial residual = 0, Final residual = 0, No Iterations 0
rho max/min : 0.83124 / 0.710718
time step continuity errors : sum local = 4.35692e-11, global = -5.27338e-12, cumulative = -5.49089e-10
max/min FaceSonicCourant: 0.0223507/0.00565908
max/min kappa: 1/1
ExecutionTime = 0.52 s  ClockTime = 1 s

Mean and max Acoustic Courant Numbers = 0.00472355 0.0111754
Courant Number max : 0.00118805 velocity magnitude: 18.1177
Time = 7.3e-06

diagonal:  Solving for rho, Initial residual = 0, Final residual = 0, No Iterations 0
rho max/min : 0.83124 / 0.710718
DILUPBiCG:  Solving for h, Initial residual = 0.00489138, Final residual = 1.07197e-12, No Iterations 2
max/min T: 291.109/286.787
DILUPBiCG:  Solving for p, Initial residual = 9.2913e-05, Final residual = 2.80136e-10, No Iterations 1
max(U): (12.1819 0.00116132 2.12369e-33)
max/min p: 68970/58970
diagonal:  Solving for rho, Initial residual = 0, Final residual = 0, No Iterations 0
rho max/min : 0.83124 / 0.710718
time step continuity errors : sum local = 4.31257e-11, global = -5.22482e-12, cumulative = -5.54314e-10
max/min FaceSonicCourant: 0.0223507/0.00565903
max/min kappa: 1/1
ExecutionTime = 0.53 s  ClockTime = 1 s

Mean and max Acoustic Courant Numbers = 0.00472359 0.0111754
Courant Number max : 0.00118931 velocity magnitude: 18.1369
Time = 7.4e-06

diagonal:  Solving for rho, Initial residual = 0, Final residual = 0, No Iterations 0
rho max/min : 0.83124 / 0.710718
DILUPBiCG:  Solving for h, Initial residual = 0.00488621, Final residual = 1.06079e-12, No Iterations 2
max/min T: 291.108/286.782
DILUPBiCG:  Solving for p, Initial residual = 9.30269e-05, Final residual = 2.77468e-10, No Iterations 1
max(U): (12.2904 0.00119163 2.12338e-33)
max/min p: 68970/58970
diagonal:  Solving for rho, Initial residual = 0, Final residual = 0, No Iterations 0
rho max/min : 0.83124 / 0.710718
time step continuity errors : sum local = 4.27072e-11, global = -5.17529e-12, cumulative = -5.5949e-10
max/min FaceSonicCourant: 0.0223507/0.00565897
max/min kappa: 1/1
ExecutionTime = 0.54 s  ClockTime = 1 s

Mean and max Acoustic Courant Numbers = 0.00472364 0.0111754
Courant Number max : 0.00119063 velocity magnitude: 18.1571
Time = 7.5e-06

diagonal:  Solving for rho, Initial residual = 0, Final residual = 0, No Iterations 0
rho max/min : 0.83124 / 0.710718
DILUPBiCG:  Solving for h, Initial residual = 0.00488126, Final residual = 1.05825e-12, No Iterations 2
max/min T: 291.106/286.777
DILUPBiCG:  Solving for p, Initial residual = 9.31482e-05, Final residual = 2.74785e-10, No Iterations 1
max(U): (12.3975 0.00122198 2.12315e-33)
max/min p: 68970/58970
diagonal:  Solving for rho, Initial residual = 0, Final residual = 0, No Iterations 0
rho max/min : 0.83124 / 0.710718
time step continuity errors : sum local = 4.22862e-11, global = -5.12478e-12, cumulative = -5.64614e-10
max/min FaceSonicCourant: 0.0223507/0.00565892
max/min kappa: 1/1
ExecutionTime = 0.54 s  ClockTime = 1 s

Mean and max Acoustic Courant Numbers = 0.00472368 0.0111754
Courant Number max : 0.00119201 velocity magnitude: 18.1781
Time = 7.6e-06

diagonal:  Solving for rho, Initial residual = 0, Final residual = 0, No Iterations 0
rho max/min : 0.83124 / 0.710718
DILUPBiCG:  Solving for h, Initial residual = 0.00487652, Final residual = 1.0649e-12, No Iterations 2
max/min T: 291.104/286.772
DILUPBiCG:  Solving for p, Initial residual = 9.32768e-05, Final residual = 2.72078e-10, No Iterations 1
max(U): (12.5034 0.00125234 2.12284e-33)
max/min p: 68970/58970
diagonal:  Solving for rho, Initial residual = 0, Final residual = 0, No Iterations 0
rho max/min : 0.83124 / 0.710718
time step continuity errors : sum local = 4.18618e-11, global = -5.07324e-12, cumulative = -5.69688e-10
max/min FaceSonicCourant: 0.0223507/0.00565888
max/min kappa: 1/1
ExecutionTime = 0.55 s  ClockTime = 1 s

Mean and max Acoustic Courant Numbers = 0.00472372 0.0111754
Courant Number max : 0.00119344 velocity magnitude: 18.2
Time = 7.7e-06

diagonal:  Solving for rho, Initial residual = 0, Final residual = 0, No Iterations 0
rho max/min : 0.83124 / 0.710718
DILUPBiCG:  Solving for h, Initial residual = 0.00487199, Final residual = 1.07892e-12, No Iterations 2
max/min T: 291.102/286.767
DILUPBiCG:  Solving for p, Initial residual = 9.34121e-05, Final residual = 2.6944e-10, No Iterations 1
max(U): (12.6082 0.00128271 2.12258e-33)
max/min p: 68970/58970
diagonal:  Solving for rho, Initial residual = 0, Final residual = 0, No Iterations 0
rho max/min : 0.83124 / 0.710718
time step continuity errors : sum local = 4.14482e-11, global = -5.02046e-12, cumulative = -5.74708e-10
max/min FaceSonicCourant: 0.0223507/0.00565883
max/min kappa: 1/1
ExecutionTime = 0.55 s  ClockTime = 1 s

Mean and max Acoustic Courant Numbers = 0.00472376 0.0111754
Courant Number max : 0.00119494 velocity magnitude: 18.2228
Time = 7.8e-06

diagonal:  Solving for rho, Initial residual = 0, Final residual = 0, No Iterations 0
rho max/min : 0.83124 / 0.710718
DILUPBiCG:  Solving for h, Initial residual = 0.00486769, Final residual = 1.10052e-12, No Iterations 2
max/min T: 291.099/286.763
DILUPBiCG:  Solving for p, Initial residual = 9.3554e-05, Final residual = 2.66908e-10, No Iterations 1
max(U): (12.7117 0.00131306 2.12234e-33)
max/min p: 68970/58970
diagonal:  Solving for rho, Initial residual = 0, Final residual = 0, No Iterations 0
rho max/min : 0.83124 / 0.710718
time step continuity errors : sum local = 4.10511e-11, global = -4.96651e-12, cumulative = -5.79675e-10
max/min FaceSonicCourant: 0.0223507/0.00565878
max/min kappa: 1/1
ExecutionTime = 0.56 s  ClockTime = 1 s

Mean and max Acoustic Courant Numbers = 0.00472381 0.0111754
Courant Number max : 0.00119648 velocity magnitude: 18.2463
Time = 7.9e-06

diagonal:  Solving for rho, Initial residual = 0, Final residual = 0, No Iterations 0
rho max/min : 0.83124 / 0.710718
DILUPBiCG:  Solving for h, Initial residual = 0.0048636, Final residual = 1.13054e-12, No Iterations 2
max/min T: 291.096/286.759
DILUPBiCG:  Solving for p, Initial residual = 9.37018e-05, Final residual = 2.64333e-10, No Iterations 1
max(U): (12.814 0.00134338 2.12203e-33)
max/min p: 68970/58970
diagonal:  Solving for rho, Initial residual = 0, Final residual = 0, No Iterations 0
rho max/min : 0.83124 / 0.710718
time step continuity errors : sum local = 4.06474e-11, global = -4.91047e-12, cumulative = -5.84585e-10
max/min FaceSonicCourant: 0.0223507/0.00565874
max/min kappa: 1/1
ExecutionTime = 0.57 s  ClockTime = 1 s

Mean and max Acoustic Courant Numbers = 0.00472385 0.0111754
Courant Number max : 0.00119807 velocity magnitude: 18.2706
Time = 8e-06

diagonal:  Solving for rho, Initial residual = 0, Final residual = 0, No Iterations 0
rho max/min : 0.83124 / 0.710718
DILUPBiCG:  Solving for h, Initial residual = 0.00485954, Final residual = 1.17068e-12, No Iterations 2
max/min T: 291.093/286.755
DILUPBiCG:  Solving for p, Initial residual = 9.38555e-05, Final residual = 2.61898e-10, No Iterations 1
max(U): (12.9151 0.00137368 2.1218e-33)
max/min p: 68970/58970
diagonal:  Solving for rho, Initial residual = 0, Final residual = 0, No Iterations 0
rho max/min : 0.83124 / 0.710718
time step continuity errors : sum local = 4.02653e-11, global = -4.85384e-12, cumulative = -5.89439e-10
max/min FaceSonicCourant: 0.0223507/0.0056587
max/min kappa: 1/1
ExecutionTime = 0.57 s  ClockTime = 1 s

Mean and max Acoustic Courant Numbers = 0.00472389 0.0111754
Courant Number max : 0.00119971 velocity magnitude: 18.2955
Time = 8.1e-06

diagonal:  Solving for rho, Initial residual = 0, Final residual = 0, No Iterations 0
rho max/min : 0.83124 / 0.710718
DILUPBiCG:  Solving for h, Initial residual = 0.00485569, Final residual = 1.20658e-12, No Iterations 2
max/min T: 291.09/286.751
DILUPBiCG:  Solving for p, Initial residual = 9.40152e-05, Final residual = 2.59938e-10, No Iterations 1
max(U): (13.015 0.00140391 2.1216e-33)
max/min p: 68970/58970
diagonal:  Solving for rho, Initial residual = 0, Final residual = 0, No Iterations 0
rho max/min : 0.83124 / 0.710718
time step continuity errors : sum local = 3.99565e-11, global = -4.79604e-12, cumulative = -5.94235e-10
max/min FaceSonicCourant: 0.0223507/0.00565866
max/min kappa: 1/1
ExecutionTime = 0.58 s  ClockTime = 1 s

Mean and max Acoustic Courant Numbers = 0.00472393 0.0111754
Courant Number max : 0.00120139 velocity magnitude: 18.3212
Time = 8.2e-06

diagonal:  Solving for rho, Initial residual = 0, Final residual = 0, No Iterations 0
rho max/min : 0.83124 / 0.710718
DILUPBiCG:  Solving for h, Initial residual = 0.00485208, Final residual = 1.2495e-12, No Iterations 2
max/min T: 291.087/286.747
DILUPBiCG:  Solving for p, Initial residual = 9.41805e-05, Final residual = 2.57936e-10, No Iterations 1
max(U): (13.1139 0.00143403 2.12154e-33)
max/min p: 68970/58970
diagonal:  Solving for rho, Initial residual = 0, Final residual = 0, No Iterations 0
rho max/min : 0.83124 / 0.710718
time step continuity errors : sum local = 3.96413e-11, global = -4.73691e-12, cumulative = -5.98972e-10
max/min FaceSonicCourant: 0.0223507/0.00565863
max/min kappa: 1/1
ExecutionTime = 0.59 s  ClockTime = 1 s

Mean and max Acoustic Courant Numbers = 0.00472397 0.0111754
Courant Number max : 0.00120311 velocity magnitude: 18.3475
Time = 8.3e-06

diagonal:  Solving for rho, Initial residual = 0, Final residual = 0, No Iterations 0
rho max/min : 0.83124 / 0.710718
DILUPBiCG:  Solving for h, Initial residual = 0.0048487, Final residual = 1.30169e-12, No Iterations 2
max/min T: 291.083/286.743
DILUPBiCG:  Solving for p, Initial residual = 9.43511e-05, Final residual = 2.56017e-10, No Iterations 1
max(U): (13.2115 0.00146402 2.12146e-33)
max/min p: 68970/58970
diagonal:  Solving for rho, Initial residual = 0, Final residual = 0, No Iterations 0
rho max/min : 0.83124 / 0.710718
time step continuity errors : sum local = 3.93389e-11, global = -4.67637e-12, cumulative = -6.03648e-10
max/min FaceSonicCourant: 0.0223507/0.00565859
max/min kappa: 1/1
ExecutionTime = 0.6 s  ClockTime = 1 s

Mean and max Acoustic Courant Numbers = 0.00472401 0.0111754
Courant Number max : 0.00120487 velocity magnitude: 18.3743
Time = 8.4e-06

diagonal:  Solving for rho, Initial residual = 0, Final residual = 0, No Iterations 0
rho max/min : 0.83124 / 0.710718
DILUPBiCG:  Solving for h, Initial residual = 0.00484555, Final residual = 1.36468e-12, No Iterations 2
max/min T: 291.079/286.74
DILUPBiCG:  Solving for p, Initial residual = 9.45267e-05, Final residual = 2.55302e-10, No Iterations 1
max(U): (13.3081 0.00149383 2.12149e-33)
max/min p: 68970/58970
diagonal:  Solving for rho, Initial residual = 0, Final residual = 0, No Iterations 0
rho max/min : 0.83124 / 0.710718
time step continuity errors : sum local = 3.92216e-11, global = -4.61438e-12, cumulative = -6.08263e-10
max/min FaceSonicCourant: 0.0223507/0.00565856
max/min kappa: 1/1
ExecutionTime = 0.61 s  ClockTime = 1 s

Mean and max Acoustic Courant Numbers = 0.00472406 0.0111754
Courant Number max : 0.00120667 velocity magnitude: 18.4017
Time = 8.5e-06

diagonal:  Solving for rho, Initial residual = 0, Final residual = 0, No Iterations 0
rho max/min : 0.83124 / 0.710718
DILUPBiCG:  Solving for h, Initial residual = 0.00484263, Final residual = 1.44051e-12, No Iterations 2
max/min T: 291.075/286.737
DILUPBiCG:  Solving for p, Initial residual = 9.47071e-05, Final residual = 2.55803e-10, No Iterations 1
max(U): (13.4035 0.00152344 2.12153e-33)
max/min p: 68970/58970
diagonal:  Solving for rho, Initial residual = 0, Final residual = 0, No Iterations 0
rho max/min : 0.83124 / 0.710718
time step continuity errors : sum local = 3.92911e-11, global = -4.55094e-12, cumulative = -6.12813e-10
max/min FaceSonicCourant: 0.0223507/0.00565852
max/min kappa: 1/1
ExecutionTime = 0.62 s  ClockTime = 1 s

Mean and max Acoustic Courant Numbers = 0.0047241 0.0111754
Courant Number max : 0.0012085 velocity magnitude: 18.4297
Time = 8.6e-06

diagonal:  Solving for rho, Initial residual = 0, Final residual = 0, No Iterations 0
rho max/min : 0.83124 / 0.710718
DILUPBiCG:  Solving for h, Initial residual = 0.00483995, Final residual = 1.5311e-12, No Iterations 2
max/min T: 291.071/286.733
DILUPBiCG:  Solving for p, Initial residual = 9.48921e-05, Final residual = 2.57116e-10, No Iterations 1
max(U): (13.4978 0.0015528 2.12155e-33)
max/min p: 68970/58970
diagonal:  Solving for rho, Initial residual = 0, Final residual = 0, No Iterations 0
rho max/min : 0.83124 / 0.710718
time step continuity errors : sum local = 3.94853e-11, global = -4.48602e-12, cumulative = -6.173e-10
max/min FaceSonicCourant: 0.0223507/0.00565849
max/min kappa: 1/1
ExecutionTime = 0.62 s  ClockTime = 1 s

Mean and max Acoustic Courant Numbers = 0.00472414 0.0111754
Courant Number max : 0.00121037 velocity magnitude: 18.4581
Time = 8.7e-06

diagonal:  Solving for rho, Initial residual = 0, Final residual = 0, No Iterations 0
rho max/min : 0.83124 / 0.710718
DILUPBiCG:  Solving for h, Initial residual = 0.00483751, Final residual = 1.63217e-12, No Iterations 2
max/min T: 291.066/286.73
DILUPBiCG:  Solving for p, Initial residual = 9.50814e-05, Final residual = 2.59104e-10, No Iterations 1
max(U): (13.5911 0.0015819 2.1216e-33)
max/min p: 68970/58970
diagonal:  Solving for rho, Initial residual = 0, Final residual = 0, No Iterations 0
rho max/min : 0.83124 / 0.710718
time step continuity errors : sum local = 3.9783e-11, global = -4.41949e-12, cumulative = -6.21719e-10
max/min FaceSonicCourant: 0.0223507/0.00565846
max/min kappa: 1/1
ExecutionTime = 0.63 s  ClockTime = 1 s

Mean and max Acoustic Courant Numbers = 0.00472418 0.0111754
Courant Number max : 0.00121227 velocity magnitude: 18.4871
Time = 8.8e-06

diagonal:  Solving for rho, Initial residual = 0, Final residual = 0, No Iterations 0
rho max/min : 0.83124 / 0.710718
DILUPBiCG:  Solving for h, Initial residual = 0.00483533, Final residual = 1.75638e-12, No Iterations 2
max/min T: 291.061/286.728
DILUPBiCG:  Solving for p, Initial residual = 9.52749e-05, Final residual = 2.61523e-10, No Iterations 1
max(U): (13.6833 0.0016107 2.1216e-33)
max/min p: 68970/58970
diagonal:  Solving for rho, Initial residual = 0, Final residual = 0, No Iterations 0
rho max/min : 0.83124 / 0.710718
time step continuity errors : sum local = 4.01468e-11, global = -4.35137e-12, cumulative = -6.2607e-10
max/min FaceSonicCourant: 0.0223507/0.00565844
max/min kappa: 1/1
ExecutionTime = 0.64 s  ClockTime = 1 s

Mean and max Acoustic Courant Numbers = 0.00472422 0.0111754
Courant Number max : 0.00121419 velocity magnitude: 18.5164
Time = 8.9e-06

diagonal:  Solving for rho, Initial residual = 0, Final residual = 0, No Iterations 0
rho max/min : 0.83124 / 0.710718
[...]
DILUPBiCG:  Solving for p, Initial residual = 0.000239284, Final residual = 2.06221e-10, No Iterations 1
max(U): (19.0451 0.0227136 2.112e-33)
max/min p: 68970/58970
diagonal:  Solving for rho, Initial residual = 0, Final residual = 0, No Iterations 0
rho max/min : 0.83124 / 0.710718
time step continuity errors : sum local = 1.50159e-11, global = 6.22543e-12, cumulative = 2.28551e-08
max/min FaceSonicCourant: 0.0223507/0.00561645
max/min kappa: 1/1
ExecutionTime = 15.26 s  ClockTime = 16 s

Mean and max Acoustic Courant Numbers = 0.00483777 0.0111754
Courant Number max : 0.00125432 velocity magnitude: 19.1284
Time = 0.0002479

diagonal:  Solving for rho, Initial residual = 0, Final residual = 0, No Iterations 0
rho max/min : 0.83124 / 0.710718
DILUPBiCG:  Solving for h, Initial residual = 0.000223785, Final residual = 1.23558e-10, No Iterations 1
max/min T: 295.597/282.488
DILUPBiCG:  Solving for p, Initial residual = 0.000239394, Final residual = 2.06589e-10, No Iterations 1
max(U): (19.0451 0.0227679 2.11227e-33)
max/min p: 68970/58970
diagonal:  Solving for rho, Initial residual = 0, Final residual = 0, No Iterations 0
rho max/min : 0.83124 / 0.710718
time step continuity errors : sum local = 1.50358e-11, global = 6.21395e-12, cumulative = 2.28613e-08
max/min FaceSonicCourant: 0.0223507/0.00561645
max/min kappa: 1/1
ExecutionTime = 15.26 s  ClockTime = 16 s

Mean and max Acoustic Courant Numbers = 0.00483782 0.0111754
Courant Number max : 0.00125432 velocity magnitude: 19.1284
Time = 0.000248

diagonal:  Solving for rho, Initial residual = 0, Final residual = 0, No Iterations 0
rho max/min : 0.83124 / 0.710718
DILUPBiCG:  Solving for h, Initial residual = 0.00022369, Final residual = 1.23594e-10, No Iterations 1
max/min T: 295.597/282.488
DILUPBiCG:  Solving for p, Initial residual = 0.000239504, Final residual = 2.0701e-10, No Iterations 1
max(U): (19.0451 0.0228209 2.11257e-33)
max/min p: 68970/58970
diagonal:  Solving for rho, Initial residual = 0, Final residual = 0, No Iterations 0
rho max/min : 0.83124 / 0.710718
time step continuity errors : sum local = 1.50595e-11, global = 6.20326e-12, cumulative = 2.28675e-08
max/min FaceSonicCourant: 0.0223507/0.00561645
max/min kappa: 1/1
ExecutionTime = 15.27 s  ClockTime = 16 s

Mean and max Acoustic Courant Numbers = 0.00483787 0.0111754
Courant Number max : 0.00125432 velocity magnitude: 19.1284
Time = 0.0002481

diagonal:  Solving for rho, Initial residual = 0, Final residual = 0, No Iterations 0
rho max/min : 0.83124 / 0.710718
DILUPBiCG:  Solving for h, Initial residual = 0.000223594, Final residual = 1.23502e-10, No Iterations 1
max/min T: 295.597/282.488
DILUPBiCG:  Solving for p, Initial residual = 0.000239615, Final residual = 2.07415e-10, No Iterations 1
max(U): (19.0451 0.0228725 2.11281e-33)
max/min p: 68970/58970
diagonal:  Solving for rho, Initial residual = 0, Final residual = 0, No Iterations 0
rho max/min : 0.83124 / 0.710718
time step continuity errors : sum local = 1.5082e-11, global = 6.19378e-12, cumulative = 2.28737e-08
max/min FaceSonicCourant: 0.0223507/0.00561645
max/min kappa: 1/1
ExecutionTime = 15.27 s  ClockTime = 16 s

Mean and max Acoustic Courant Numbers = 0.00483792 0.0111754
Courant Number max : 0.00125432 velocity magnitude: 19.1284
Time = 0.0002482

diagonal:  Solving for rho, Initial residual = 0, Final residual = 0, No Iterations 0
rho max/min : 0.83124 / 0.710718
DILUPBiCG:  Solving for h, Initial residual = 0.000223499, Final residual = 1.23523e-10, No Iterations 1
max/min T: 295.597/282.488
DILUPBiCG:  Solving for p, Initial residual = 0.000239725, Final residual = 2.07821e-10, No Iterations 1
max(U): (19.0451 0.0229228 2.11296e-33)
max/min p: 68970/58970
diagonal:  Solving for rho, Initial residual = 0, Final residual = 0, No Iterations 0
rho max/min : 0.83124 / 0.710718
time step continuity errors : sum local = 1.51045e-11, global = 6.1844e-12, cumulative = 2.28799e-08
max/min FaceSonicCourant: 0.0223507/0.00561645
max/min kappa: 1/1
ExecutionTime = 15.28 s  ClockTime = 16 s

Mean and max Acoustic Courant Numbers = 0.00483796 0.0111754
Courant Number max : 0.00125432 velocity magnitude: 19.1284
Time = 0.0002483

diagonal:  Solving for rho, Initial residual = 0, Final residual = 0, No Iterations 0
rho max/min : 0.83124 / 0.710718
DILUPBiCG:  Solving for h, Initial residual = 0.000223404, Final residual = 1.23536e-10, No Iterations 1
max/min T: 295.597/282.489
DILUPBiCG:  Solving for p, Initial residual = 0.000239836, Final residual = 2.08264e-10, No Iterations 1
max(U): (19.0451 0.0229718 2.11311e-33)
max/min p: 68970/58970
diagonal:  Solving for rho, Initial residual = 0, Final residual = 0, No Iterations 0
rho max/min : 0.83124 / 0.710718
time step continuity errors : sum local = 1.51297e-11, global = 6.17568e-12, cumulative = 2.28861e-08
max/min FaceSonicCourant: 0.0223507/0.00561645
max/min kappa: 1/1
ExecutionTime = 15.29 s  ClockTime = 16 s

Mean and max Acoustic Courant Numbers = 0.00483801 0.0111754
Courant Number max : 0.00125432 velocity magnitude: 19.1283
Time = 0.0002484

diagonal:  Solving for rho, Initial residual = 0, Final residual = 0, No Iterations 0
rho max/min : 0.83124 / 0.710718
DILUPBiCG:  Solving for h, Initial residual = 0.000223309, Final residual = 1.23541e-10, No Iterations 1
max/min T: 295.597/282.489
DILUPBiCG:  Solving for p, Initial residual = 0.000239947, Final residual = 2.0875e-10, No Iterations 1
max(U): (19.0451 0.0230195 2.11328e-33)
max/min p: 68970/58970
diagonal:  Solving for rho, Initial residual = 0, Final residual = 0, No Iterations 0
rho max/min : 0.83124 / 0.710718
time step continuity errors : sum local = 1.5158e-11, global = 6.25405e-12, cumulative = 2.28923e-08
max/min FaceSonicCourant: 0.0223507/0.00561645
max/min kappa: 1/1
ExecutionTime = 15.29 s  ClockTime = 16 s

Mean and max Acoustic Courant Numbers = 0.00483806 0.0111754
Courant Number max : 0.00125432 velocity magnitude: 19.1283
Time = 0.0002485

diagonal:  Solving for rho, Initial residual = 0, Final residual = 0, No Iterations 0
rho max/min : 0.83124 / 0.710718
DILUPBiCG:  Solving for h, Initial residual = 0.000223214, Final residual = 1.23156e-10, No Iterations 1
max/min T: 295.597/282.489
DILUPBiCG:  Solving for p, Initial residual = 0.00024006, Final residual = 2.09206e-10, No Iterations 1
max(U): (19.0451 0.0230659 2.11341e-33)
max/min p: 68970/58970
diagonal:  Solving for rho, Initial residual = 0, Final residual = 0, No Iterations 0
rho max/min : 0.83124 / 0.710718
time step continuity errors : sum local = 1.51841e-11, global = 6.24676e-12, cumulative = 2.28986e-08
max/min FaceSonicCourant: 0.0223507/0.00561645
max/min kappa: 1/1
ExecutionTime = 15.3 s  ClockTime = 16 s

Mean and max Acoustic Courant Numbers = 0.00483811 0.0111754
Courant Number max : 0.00125432 velocity magnitude: 19.1283
Time = 0.0002486

diagonal:  Solving for rho, Initial residual = 0, Final residual = 0, No Iterations 0
rho max/min : 0.83124 / 0.710718
DILUPBiCG:  Solving for h, Initial residual = 0.000223121, Final residual = 1.23079e-10, No Iterations 1
max/min T: 295.597/282.489
DILUPBiCG:  Solving for p, Initial residual = 0.000240172, Final residual = 1.79013e-10, No Iterations 1
max(U): (19.045 0.023111 2.11355e-33)
max/min p: 68970/58970
diagonal:  Solving for rho, Initial residual = 0, Final residual = 0, No Iterations 0
rho max/min : 0.83124 / 0.710718
time step continuity errors : sum local = 1.29867e-11, global = 4.45627e-12, cumulative = 2.2903e-08
max/min FaceSonicCourant: 0.0223507/0.00561645
max/min kappa: 1/1
ExecutionTime = 15.3 s  ClockTime = 16 s

Mean and max Acoustic Courant Numbers = 0.00483815 0.0111754
Courant Number max : 0.00125431 velocity magnitude: 19.1283
Time = 0.0002487

diagonal:  Solving for rho, Initial residual = 0, Final residual = 0, No Iterations 0
rho max/min : 0.83124 / 0.710718
DILUPBiCG:  Solving for h, Initial residual = 0.000223027, Final residual = 1.22975e-10, No Iterations 1
max/min T: 295.597/282.489
DILUPBiCG:  Solving for p, Initial residual = 0.000240283, Final residual = 1.79224e-10, No Iterations 1
max(U): (19.045 0.0231548 2.1137e-33)
max/min p: 68970/58970
diagonal:  Solving for rho, Initial residual = 0, Final residual = 0, No Iterations 0
rho max/min : 0.83124 / 0.710718
time step continuity errors : sum local = 1.2996e-11, global = 4.43192e-12, cumulative = 2.29075e-08
max/min FaceSonicCourant: 0.0223507/0.00561645
max/min kappa: 1/1
ExecutionTime = 15.31 s  ClockTime = 16 s

Mean and max Acoustic Courant Numbers = 0.0048382 0.0111754
Courant Number max : 0.00125431 velocity magnitude: 19.1283
Time = 0.0002488

diagonal:  Solving for rho, Initial residual = 0, Final residual = 0, No Iterations 0
rho max/min : 0.83124 / 0.710718
DILUPBiCG:  Solving for h, Initial residual = 0.000222933, Final residual = 1.22873e-10, No Iterations 1
max/min T: 295.597/282.489
DILUPBiCG:  Solving for p, Initial residual = 0.000240395, Final residual = 1.79441e-10, No Iterations 1
max(U): (19.045 0.0231973 2.11383e-33)
max/min p: 68970/58970
diagonal:  Solving for rho, Initial residual = 0, Final residual = 0, No Iterations 0
rho max/min : 0.83124 / 0.710718
time step continuity errors : sum local = 1.30057e-11, global = 4.40931e-12, cumulative = 2.29119e-08
max/min FaceSonicCourant: 0.0223507/0.00561645
max/min kappa: 1/1
ExecutionTime = 15.31 s  ClockTime = 16 s

Mean and max Acoustic Courant Numbers = 0.00483825 0.0111754
Courant Number max : 0.00125431 velocity magnitude: 19.1283
Time = 0.0002489

diagonal:  Solving for rho, Initial residual = 0, Final residual = 0, No Iterations 0
rho max/min : 0.83124 / 0.710718
DILUPBiCG:  Solving for h, Initial residual = 0.000222838, Final residual = 1.22698e-10, No Iterations 1
max/min T: 295.597/282.489
DILUPBiCG:  Solving for p, Initial residual = 0.000240506, Final residual = 1.79666e-10, No Iterations 1
max(U): (19.045 0.0232385 2.11395e-33)
max/min p: 68970/58970
diagonal:  Solving for rho, Initial residual = 0, Final residual = 0, No Iterations 0
rho max/min : 0.83124 / 0.710718
time step continuity errors : sum local = 1.30159e-11, global = 4.38871e-12, cumulative = 2.29163e-08
max/min FaceSonicCourant: 0.0223507/0.00561645
max/min kappa: 1/1
ExecutionTime = 15.32 s  ClockTime = 16 s

Mean and max Acoustic Courant Numbers = 0.0048383 0.0111754
Courant Number max : 0.00125431 velocity magnitude: 19.1282
Time = 0.000249

diagonal:  Solving for rho, Initial residual = 0, Final residual = 0, No Iterations 0
rho max/min : 0.83124 / 0.710718
DILUPBiCG:  Solving for h, Initial residual = 0.000222744, Final residual = 1.2233e-10, No Iterations 1
max/min T: 295.597/282.489
DILUPBiCG:  Solving for p, Initial residual = 0.000240618, Final residual = 1.799e-10, No Iterations 1
max(U): (19.045 0.0232785 2.11406e-33)
max/min p: 68970/58970
diagonal:  Solving for rho, Initial residual = 0, Final residual = 0, No Iterations 0
rho max/min : 0.83124 / 0.710718
time step continuity errors : sum local = 1.30268e-11, global = 4.3664e-12, cumulative = 2.29206e-08
max/min FaceSonicCourant: 0.0223507/0.00561645
max/min kappa: 1/1
ExecutionTime = 15.33 s  ClockTime = 16 s

Mean and max Acoustic Courant Numbers = 0.00483835 0.0111754
Courant Number max : 0.00125431 velocity magnitude: 19.1282
Time = 0.0002491

diagonal:  Solving for rho, Initial residual = 0, Final residual = 0, No Iterations 0
rho max/min : 0.83124 / 0.710718
DILUPBiCG:  Solving for h, Initial residual = 0.00022265, Final residual = 1.21964e-10, No Iterations 1
max/min T: 295.597/282.489
DILUPBiCG:  Solving for p, Initial residual = 0.00024073, Final residual = 1.8015e-10, No Iterations 1
max(U): (19.045 0.0233172 2.11407e-33)
max/min p: 68970/58970
diagonal:  Solving for rho, Initial residual = 0, Final residual = 0, No Iterations 0
rho max/min : 0.83124 / 0.710718
time step continuity errors : sum local = 1.30388e-11, global = 4.34658e-12, cumulative = 2.2925e-08
max/min FaceSonicCourant: 0.0223507/0.00561645
max/min kappa: 1/1
ExecutionTime = 15.33 s  ClockTime = 16 s

Mean and max Acoustic Courant Numbers = 0.00483839 0.0111754
Courant Number max : 0.00125431 velocity magnitude: 19.1282
Time = 0.0002492

diagonal:  Solving for rho, Initial residual = 0, Final residual = 0, No Iterations 0
rho max/min : 0.83124 / 0.710718
DILUPBiCG:  Solving for h, Initial residual = 0.000222556, Final residual = 1.21771e-10, No Iterations 1
max/min T: 295.597/282.489
DILUPBiCG:  Solving for p, Initial residual = 0.000240842, Final residual = 1.8028e-10, No Iterations 1
max(U): (19.045 0.0233547 2.11407e-33)
max/min p: 68970/58970
diagonal:  Solving for rho, Initial residual = 0, Final residual = 0, No Iterations 0
rho max/min : 0.83124 / 0.710718
time step continuity errors : sum local = 1.30422e-11, global = 4.32869e-12, cumulative = 2.29293e-08
max/min FaceSonicCourant: 0.0223507/0.00561645
max/min kappa: 1/1
ExecutionTime = 15.34 s  ClockTime = 16 s

Mean and max Acoustic Courant Numbers = 0.00483844 0.0111754
Courant Number max : 0.00125431 velocity magnitude: 19.1282
Time = 0.0002493

diagonal:  Solving for rho, Initial residual = 0, Final residual = 0, No Iterations 0
rho max/min : 0.83124 / 0.710718
DILUPBiCG:  Solving for h, Initial residual = 0.000222462, Final residual = 1.21675e-10, No Iterations 1
max/min T: 295.597/282.489
DILUPBiCG:  Solving for p, Initial residual = 0.000240954, Final residual = 1.80285e-10, No Iterations 1
max(U): (19.045 0.0233909 2.11407e-33)
max/min p: 68970/58970
diagonal:  Solving for rho, Initial residual = 0, Final residual = 0, No Iterations 0
rho max/min : 0.83124 / 0.710718
time step continuity errors : sum local = 1.30365e-11, global = 4.31096e-12, cumulative = 2.29336e-08
max/min FaceSonicCourant: 0.0223507/0.00561645
max/min kappa: 1/1
ExecutionTime = 15.34 s  ClockTime = 16 s

Mean and max Acoustic Courant Numbers = 0.00483849 0.0111754
Courant Number max : 0.00125431 velocity magnitude: 19.1282
Time = 0.0002494

diagonal:  Solving for rho, Initial residual = 0, Final residual = 0, No Iterations 0
rho max/min : 0.83124 / 0.710718
DILUPBiCG:  Solving for h, Initial residual = 0.000222368, Final residual = 1.21646e-10, No Iterations 1
max/min T: 295.597/282.489
DILUPBiCG:  Solving for p, Initial residual = 0.000241066, Final residual = 1.80403e-10, No Iterations 1
max(U): (19.045 0.0234258 2.11407e-33)
max/min p: 68970/58970
diagonal:  Solving for rho, Initial residual = 0, Final residual = 0, No Iterations 0
rho max/min : 0.83124 / 0.710718
time step continuity errors : sum local = 1.30389e-11, global = 4.29427e-12, cumulative = 2.29379e-08
max/min FaceSonicCourant: 0.0223507/0.00561646
max/min kappa: 1/1
ExecutionTime = 15.35 s  ClockTime = 16 s

Mean and max Acoustic Courant Numbers = 0.00483854 0.0111754
Courant Number max : 0.00125431 velocity magnitude: 19.1282
Time = 0.0002495

diagonal:  Solving for rho, Initial residual = 0, Final residual = 0, No Iterations 0
rho max/min : 0.83124 / 0.710718
DILUPBiCG:  Solving for h, Initial residual = 0.000222274, Final residual = 1.21611e-10, No Iterations 1
max/min T: 295.597/282.489
DILUPBiCG:  Solving for p, Initial residual = 0.000241179, Final residual = 1.78789e-10, No Iterations 1
max(U): (19.045 0.0234596 2.11407e-33)
max/min p: 68970/58970
diagonal:  Solving for rho, Initial residual = 0, Final residual = 0, No Iterations 0
rho max/min : 0.83124 / 0.710718
time step continuity errors : sum local = 1.29162e-11, global = 4.03716e-12, cumulative = 2.2942e-08
max/min FaceSonicCourant: 0.0223507/0.00561646
max/min kappa: 1/1
ExecutionTime = 15.36 s  ClockTime = 16 s

Mean and max Acoustic Courant Numbers = 0.00483859 0.0111754
Courant Number max : 0.00125431 velocity magnitude: 19.1282
Time = 0.0002496

diagonal:  Solving for rho, Initial residual = 0, Final residual = 0, No Iterations 0
rho max/min : 0.83124 / 0.710718
DILUPBiCG:  Solving for h, Initial residual = 0.00022218, Final residual = 1.21597e-10, No Iterations 1
max/min T: 295.597/282.489
DILUPBiCG:  Solving for p, Initial residual = 0.000241291, Final residual = 1.78874e-10, No Iterations 1
max(U): (19.045 0.0234921 2.11407e-33)
max/min p: 68970/58970
diagonal:  Solving for rho, Initial residual = 0, Final residual = 0, No Iterations 0
rho max/min : 0.83124 / 0.710718
time step continuity errors : sum local = 1.29164e-11, global = 4.02159e-12, cumulative = 2.2946e-08
max/min FaceSonicCourant: 0.0223507/0.00561646
max/min kappa: 1/1
ExecutionTime = 15.36 s  ClockTime = 16 s

Mean and max Acoustic Courant Numbers = 0.00483863 0.0111754
Courant Number max : 0.0012543 velocity magnitude: 19.1281
Time = 0.0002497

diagonal:  Solving for rho, Initial residual = 0, Final residual = 0, No Iterations 0
rho max/min : 0.83124 / 0.710718
DILUPBiCG:  Solving for h, Initial residual = 0.000222087, Final residual = 1.21599e-10, No Iterations 1
max/min T: 295.597/282.489
DILUPBiCG:  Solving for p, Initial residual = 0.000241404, Final residual = 1.79439e-10, No Iterations 1
max(U): (19.045 0.0235234 2.11407e-33)
max/min p: 68970/58970
diagonal:  Solving for rho, Initial residual = 0, Final residual = 0, No Iterations 0
rho max/min : 0.83124 / 0.710718
time step continuity errors : sum local = 1.29511e-11, global = 3.96797e-12, cumulative = 2.29499e-08
max/min FaceSonicCourant: 0.0223507/0.00561646
max/min kappa: 1/1
ExecutionTime = 15.37 s  ClockTime = 16 s

Mean and max Acoustic Courant Numbers = 0.00483868 0.0111754
Courant Number max : 0.0012543 velocity magnitude: 19.1281
Time = 0.0002498

diagonal:  Solving for rho, Initial residual = 0, Final residual = 0, No Iterations 0
rho max/min : 0.83124 / 0.710718
DILUPBiCG:  Solving for h, Initial residual = 0.000221994, Final residual = 1.21914e-10, No Iterations 1
max/min T: 295.596/282.489
DILUPBiCG:  Solving for p, Initial residual = 0.000241517, Final residual = 1.79586e-10, No Iterations 1
max(U): (19.045 0.0235535 2.11413e-33)
max/min p: 68970/58970
diagonal:  Solving for rho, Initial residual = 0, Final residual = 0, No Iterations 0
rho max/min : 0.83124 / 0.710718
time step continuity errors : sum local = 1.29557e-11, global = 3.9574e-12, cumulative = 2.29539e-08
max/min FaceSonicCourant: 0.0223507/0.00561646
max/min kappa: 1/1
ExecutionTime = 15.37 s  ClockTime = 16 s

Mean and max Acoustic Courant Numbers = 0.00483873 0.0111754
Courant Number max : 0.0012543 velocity magnitude: 19.1281
Time = 0.0002499

diagonal:  Solving for rho, Initial residual = 0, Final residual = 0, No Iterations 0
rho max/min : 0.83124 / 0.710718
DILUPBiCG:  Solving for h, Initial residual = 0.000221901, Final residual = 1.21215e-10, No Iterations 1
max/min T: 295.596/282.489
DILUPBiCG:  Solving for p, Initial residual = 0.00024163, Final residual = 1.79799e-10, No Iterations 1
max(U): (19.045 0.0235824 2.1144e-33)
max/min p: 68970/58970
diagonal:  Solving for rho, Initial residual = 0, Final residual = 0, No Iterations 0
rho max/min : 0.83124 / 0.710718
time step continuity errors : sum local = 1.2965e-11, global = 3.94695e-12, cumulative = 2.29578e-08
max/min FaceSonicCourant: 0.0223507/0.00561646
max/min kappa: 1/1
ExecutionTime = 15.38 s  ClockTime = 16 s

Mean and max Acoustic Courant Numbers = 0.00483878 0.0111754
Courant Number max : 0.0012543 velocity magnitude: 19.1281
Time = 0.00025

diagonal:  Solving for rho, Initial residual = 0, Final residual = 0, No Iterations 0
rho max/min : 0.83124 / 0.710718
DILUPBiCG:  Solving for h, Initial residual = 0.000221808, Final residual = 1.20456e-10, No Iterations 1
max/min T: 295.596/282.489
DILUPBiCG:  Solving for p, Initial residual = 0.000241743, Final residual = 1.80067e-10, No Iterations 1
max(U): (19.045 0.0236101 2.11461e-33)
max/min p: 68970/58970
diagonal:  Solving for rho, Initial residual = 0, Final residual = 0, No Iterations 0
rho max/min : 0.83124 / 0.710718
time step continuity errors : sum local = 1.29782e-11, global = 3.93739e-12, cumulative = 2.29618e-08
max/min FaceSonicCourant: 0.0223507/0.00561646
max/min kappa: 1/1
ExecutionTime = 15.4 s  ClockTime = 16 s

End

