/*---------------------------------------------------------------------------*\
| =========                 |                                                 |
| \\      /  F ield         | OpenFOAM: The Open Source CFD Toolbox           |
|  \\    /   O peration     | Version:  2012                                  |
|   \\  /    A nd           | Website:  www.openfoam.com                      |
|    \\/     M anipulation  |                                                 |
\*---------------------------------------------------------------------------*/
Build  : _269d0ffd5c-20210619 OPENFOAM=2012 patch=210618
Arch   : "LSB;label=32;scalar=64"
Exec   : interTwoPhaseCentralFoam
Date   : Dec 20 2021
Time   : 13:40:14
Host   : friday
PID    : 9798
I/O    : uncollated
Case   : /home/aleksandr/OpenFOAM/aleksandr-v2012/hybridCentralSolvers/Sources/interTwoPhaseCentralFoam/tutorial/Gas
nProcs : 1
trapFpe: Floating point exception trapping enabled (FOAM_SIGFPE).
fileModificationChecking : Monitoring run-time modified files using timeStampMaster (fileModificationSkew 5, maxFileModificationPolls 20)
allowSystemOperations : Allowing user-supplied system call operations

// * * * * * * * * * * * * * * * * * * * * * * * * * * * * * * * * * * * * * //
Create time

Create mesh for time = 0


PIMPLE: no residual control data found. Calculations will employ 3 corrector loops

Selecting surfaceTensionModel constant

Constructor is working


Starting time loop


Reading g

Reading hRef
Calculating field g.h

 C1 5.213911901 C2 1.18382567
Courant Number mean: 0 max: 0
deltaT = 1.19999976e-07
Time = 1.2e-07

diagonal:  Solving for rho1, Initial residual = 0, Final residual = 0, No Iterations 0
diagonal:  Solving for rho2, Initial residual = 0, Final residual = 0, No Iterations 0
PIMPLE: iteration 1
DILUPBiCGStab:  Solving for volumeFraction1, Initial residual = 0, Final residual = 0, No Iterations 0
Phase-1 volume fraction = 0  Min(volumeFraction1) = 0  Max(volumeFraction1) = 0
 max: rho1 1033.041348 min: 1033.005168
 max: rho2 0.9989740407 min: 0.124871764
DILUPBiCGStab:  Solving for T, Initial residual = 8.427567953e-16, Final residual = 8.427567953e-16, No Iterations 0
 C1 5.213911901 C2 1.18382567
DILUPBiCGStab:  Solving for p_rgh, Initial residual = 1.227926823e-07, Final residual = 1.317218676e-23, No Iterations 1
max/min kappa: 0/0
max/min source: 7.409089736e-12/-1.481817841e-11


--> FOAM FATAL IO ERROR: (openfoam-2012 patch=210618)
Unknown symmetric matrix preconditioner type DILU

Valid symmetric matrix preconditioner types :
5(DIC FDIC GAMG diagonal none)


    From static Foam::autoPtr<Foam::lduMatrix::preconditioner> Foam::lduMatrix::preconditioner::New(const Foam::lduMatrix::solver&, const Foam::dictionary&)
    in file matrices/lduMatrix/lduMatrix/lduMatrixPreconditioner.C at line 97.

FOAM exiting

