/*---------------------------------------------------------------------------*\
| =========                 |                                                 |
| \\      /  F ield         | OpenFOAM: The Open Source CFD Toolbox           |
|  \\    /   O peration     | Version:  3.0.1                                 |
|   \\  /    A nd           | Web:      www.OpenFOAM.org                      |
|    \\/     M anipulation  |                                                 |
\*---------------------------------------------------------------------------*/
Build  : 3.0.1-d8a290b55d28
Exec   : pisoCentralFoam
Date   : Oct 13 2016
Time   : 16:12:16
Host   : "bl022.unicluster.ru"
PID    : 12316
Case   : /lustre/unicluster/home/matvey.kraposhin/run/Unicfdlab/github-hybridCentralSolvers/Tutorials-3.0.1/case-subsonic/AAco-2
nProcs : 1
sigFpe : Enabling floating point exception trapping (FOAM_SIGFPE).
fileModificationChecking : Monitoring run-time modified files using timeStampMaster
allowSystemOperations : Allowing user-supplied system call operations

// * * * * * * * * * * * * * * * * * * * * * * * * * * * * * * * * * * * * * //
Create time

Create mesh for time = 0


PIMPLE: Operating solver in PISO mode

Reading thermophysical properties

Selecting thermodynamics package 
{
    type            hePsiThermo;
    mixture         pureMixture;
    transport       const;
    thermo          hConst;
    equationOfState perfectGas;
    specie          specie;
    energy          sensibleEnthalpy;
}

Reading field U

Creating field kinetic energy K

Selecting finite volume kappaFunction type acceleratedSonicCourantInverse
Creating turbulence model

Selecting turbulence model type laminar
No finite volume options present

No MRF models present

Marking cells with bad quality to limit pressure gradient
max/min FaceSonicCourant: 0.223507/0.0568081
max/min kappa: 1/1
Courant Number max : 0 velocity magnitude: 0

Starting time loop

Mean and max Acoustic Courant Numbers = 1.66667e-19 3.33333e-19
Courant Number max : 0 velocity magnitude: 0
Time = 1e-06

diagonal:  Solving for rho, Initial residual = 0, Final residual = 0, No Iterations 0
rho max/min : 0.83124 / 0.710718
DILUPBiCG:  Solving for h, Initial residual = 1, Final residual = 5.25674e-18, No Iterations 1
max/min T: 289/289
DILUPBiCG:  Solving for p, Initial residual = 0.00129425, Final residual = 2.2537e-12, No Iterations 3
max(U): (2.29558 0.00364084 2.13188e-32)
max/min p: 68970.3/58968.2
diagonal:  Solving for rho, Initial residual = 0, Final residual = 0, No Iterations 0
rho max/min : 0.831243 / 0.710697
time step continuity errors : sum local = 3.52887e-13, global = 1.02746e-13, cumulative = 1.02746e-13
max/min FaceSonicCourant: 0.223507/0.0568081
max/min kappa: 1/1
ExecutionTime = 0.06 s  ClockTime = 0 s

Mean and max Acoustic Courant Numbers = 0.0472017 0.111754
Courant Number max : 0.0180119 velocity magnitude: 27.4681
Time = 2e-06

diagonal:  Solving for rho, Initial residual = 0, Final residual = 0, No Iterations 0
rho max/min : 0.831247 / 0.710675
DILUPBiCG:  Solving for h, Initial residual = 1, Final residual = 1.47993e-11, No Iterations 4
max/min T: 289.941/288.156
DILUPBiCG:  Solving for p, Initial residual = 0.00148432, Final residual = 4.72927e-13, No Iterations 3
max(U): (4.21061 0.00665936 2.09917e-32)
max/min p: 68970.2/58968.7
diagonal:  Solving for rho, Initial residual = 0, Final residual = 0, No Iterations 0
rho max/min : 0.831243 / 0.710697
time step continuity errors : sum local = 7.39318e-14, global = -2.82114e-15, cumulative = 9.99248e-14
max/min FaceSonicCourant: 0.223507/0.0567256
max/min kappa: 1/1
ExecutionTime = 0.07 s  ClockTime = 0 s

Mean and max Acoustic Courant Numbers = 0.0472084 0.111754
Courant Number max : 0.0156879 velocity magnitude: 23.9241
Time = 3e-06

diagonal:  Solving for rho, Initial residual = 0, Final residual = 0, No Iterations 0
rho max/min : 0.83124 / 0.710706
DILUPBiCG:  Solving for h, Initial residual = 0.287345, Final residual = 2.87447e-10, No Iterations 3
max/min T: 290.579/287.559
DILUPBiCG:  Solving for p, Initial residual = 0.0012927, Final residual = 3.33038e-10, No Iterations 2
max(U): (5.94816 0.012912 2.07294e-32)
max/min p: 68970/58969.9
diagonal:  Solving for rho, Initial residual = 0, Final residual = 0, No Iterations 0
rho max/min : 0.83124 / 0.710706
time step continuity errors : sum local = 5.18133e-11, global = 2.7965e-12, cumulative = 2.89642e-12
max/min FaceSonicCourant: 0.223507/0.0566664
max/min kappa: 1/1
ExecutionTime = 0.07 s  ClockTime = 0 s

Mean and max Acoustic Courant Numbers = 0.047214 0.111754
Courant Number max : 0.0137367 velocity magnitude: 20.9485
Time = 4e-06

diagonal:  Solving for rho, Initial residual = 0, Final residual = 0, No Iterations 0
rho max/min : 0.831241 / 0.710717
DILUPBiCG:  Solving for h, Initial residual = 0.151779, Final residual = 8.10692e-11, No Iterations 3
max/min T: 290.948/287.185
DILUPBiCG:  Solving for p, Initial residual = 0.00112405, Final residual = 2.80027e-10, No Iterations 2
max(U): (7.50207 0.016976 2.08086e-32)
max/min p: 68970/58970
diagonal:  Solving for rho, Initial residual = 0, Final residual = 0, No Iterations 0
rho max/min : 0.83124 / 0.710717
time step continuity errors : sum local = 4.34526e-11, global = -8.6494e-12, cumulative = -5.75298e-12
max/min FaceSonicCourant: 0.223507/0.0566294
max/min kappa: 1/1
ExecutionTime = 0.08 s  ClockTime = 0 s

Mean and max Acoustic Courant Numbers = 0.0472192 0.111754
Courant Number max : 0.0125388 velocity magnitude: 19.1217
Time = 5e-06

diagonal:  Solving for rho, Initial residual = 0, Final residual = 0, No Iterations 0
rho max/min : 0.83124 / 0.710718
DILUPBiCG:  Solving for h, Initial residual = 0.0934969, Final residual = 4.54216e-11, No Iterations 3
max/min T: 291.137/286.963
DILUPBiCG:  Solving for p, Initial residual = 0.00101287, Final residual = 2.22273e-10, No Iterations 2
max(U): (8.88523 0.0191355 2.13288e-32)
max/min p: 68970/58970
diagonal:  Solving for rho, Initial residual = 0, Final residual = 0, No Iterations 0
rho max/min : 0.83124 / 0.710718
time step continuity errors : sum local = 3.44124e-11, global = -5.0882e-12, cumulative = -1.08412e-11
max/min FaceSonicCourant: 0.223507/0.0566076
max/min kappa: 1/1
ExecutionTime = 0.08 s  ClockTime = 0 s

Mean and max Acoustic Courant Numbers = 0.047224 0.111754
Courant Number max : 0.0118757 velocity magnitude: 18.1104
Time = 6e-06

diagonal:  Solving for rho, Initial residual = 0, Final residual = 0, No Iterations 0
rho max/min : 0.83124 / 0.710718
DILUPBiCG:  Solving for h, Initial residual = 0.0656459, Final residual = 4.45679e-11, No Iterations 3
max/min T: 291.214/286.839
DILUPBiCG:  Solving for p, Initial residual = 0.00094991, Final residual = 2.10036e-10, No Iterations 2
max(U): (10.0951 0.0189694 2.14107e-32)
max/min p: 68970/58970
diagonal:  Solving for rho, Initial residual = 0, Final residual = 0, No Iterations 0
rho max/min : 0.83124 / 0.710718
time step continuity errors : sum local = 3.2451e-11, global = -9.39488e-12, cumulative = -2.02361e-11
max/min FaceSonicCourant: 0.223507/0.0565953
max/min kappa: 1/1
ExecutionTime = 0.09 s  ClockTime = 0 s

Mean and max Acoustic Courant Numbers = 0.0472285 0.111754
Courant Number max : 0.0115624 velocity magnitude: 17.6327
Time = 7e-06

diagonal:  Solving for rho, Initial residual = 0, Final residual = 0, No Iterations 0
rho max/min : 0.83124 / 0.710718
DILUPBiCG:  Solving for h, Initial residual = 0.0515407, Final residual = 4.53978e-11, No Iterations 3
max/min T: 291.225/286.771
DILUPBiCG:  Solving for p, Initial residual = 0.000920157, Final residual = 1.56597e-10, No Iterations 2
max(U): (11.1755 0.0180185 2.12037e-32)
max/min p: 68970/58970
diagonal:  Solving for rho, Initial residual = 0, Final residual = 0, No Iterations 0
rho max/min : 0.83124 / 0.710718
time step continuity errors : sum local = 2.41478e-11, global = -9.33819e-12, cumulative = -2.95742e-11
max/min FaceSonicCourant: 0.223507/0.0565888
max/min kappa: 1/1
ExecutionTime = 0.09 s  ClockTime = 0 s

Mean and max Acoustic Courant Numbers = 0.0472326 0.111754
Courant Number max : 0.0114867 velocity magnitude: 17.5173
Time = 8e-06

diagonal:  Solving for rho, Initial residual = 0, Final residual = 0, No Iterations 0
rho max/min : 0.83124 / 0.710718
DILUPBiCG:  Solving for h, Initial residual = 0.0470301, Final residual = 4.66698e-11, No Iterations 3
max/min T: 291.199/286.737
DILUPBiCG:  Solving for p, Initial residual = 0.000911617, Final residual = 1.59326e-10, No Iterations 2
max(U): (12.1462 0.0167436 2.11036e-32)
max/min p: 68970/58970
diagonal:  Solving for rho, Initial residual = 0, Final residual = 0, No Iterations 0
rho max/min : 0.83124 / 0.710718
time step continuity errors : sum local = 2.45224e-11, global = -6.2582e-12, cumulative = -3.58325e-11
max/min FaceSonicCourant: 0.223507/0.0565855
max/min kappa: 1/1
ExecutionTime = 0.1 s  ClockTime = 0 s

Mean and max Acoustic Courant Numbers = 0.0472366 0.111754
Courant Number max : 0.0115447 velocity magnitude: 17.6056
Time = 9e-06

diagonal:  Solving for rho, Initial residual = 0, Final residual = 0, No Iterations 0
rho max/min : 0.83124 / 0.710718
DILUPBiCG:  Solving for h, Initial residual = 0.0461023, Final residual = 3.80644e-11, No Iterations 3
max/min T: 291.149/286.725
DILUPBiCG:  Solving for p, Initial residual = 0.00091614, Final residual = 1.64443e-10, No Iterations 2
max(U): (13.0131 0.0154026 2.10029e-32)
max/min p: 68970/58970
diagonal:  Solving for rho, Initial residual = 0, Final residual = 0, No Iterations 0
rho max/min : 0.83124 / 0.710718
time step continuity errors : sum local = 2.52629e-11, global = -4.80188e-12, cumulative = -4.06343e-11
max/min FaceSonicCourant: 0.223507/0.0565843
max/min kappa: 1/1
ExecutionTime = 0.1 s  ClockTime = 0 s

Mean and max Acoustic Courant Numbers = 0.0472405 0.111754
Courant Number max : 0.0116712 velocity magnitude: 17.7985
Time = 1e-05

diagonal:  Solving for rho, Initial residual = 0, Final residual = 0, No Iterations 0
rho max/min : 0.83124 / 0.710718
DILUPBiCG:  Solving for h, Initial residual = 0.0457885, Final residual = 2.8544e-11, No Iterations 3
max/min T: 291.084/286.725
DILUPBiCG:  Solving for p, Initial residual = 0.000928452, Final residual = 1.79669e-10, No Iterations 2
max(U): (13.7898 0.0141469 2.09264e-32)
max/min p: 68970/58970
diagonal:  Solving for rho, Initial residual = 0, Final residual = 0, No Iterations 0
rho max/min : 0.83124 / 0.710718
time step continuity errors : sum local = 2.75503e-11, global = -2.75587e-12, cumulative = -4.33902e-11
max/min FaceSonicCourant: 0.223507/0.0565842
max/min kappa: 1/1
ExecutionTime = 0.1 s  ClockTime = 0 s

Mean and max Acoustic Courant Numbers = 0.0472445 0.111754
Courant Number max : 0.0118335 velocity magnitude: 18.0461
Time = 1.1e-05

diagonal:  Solving for rho, Initial residual = 0, Final residual = 0, No Iterations 0
rho max/min : 0.83124 / 0.710718
DILUPBiCG:  Solving for h, Initial residual = 0.0462844, Final residual = 2.11562e-11, No Iterations 3
max/min T: 291.15/286.733
DILUPBiCG:  Solving for p, Initial residual = 0.000941629, Final residual = 2.58607e-10, No Iterations 2
max(U): (14.488 0.0131001 2.10259e-32)
max/min p: 68970/58970
diagonal:  Solving for rho, Initial residual = 0, Final residual = 0, No Iterations 0
rho max/min : 0.83124 / 0.710718
time step continuity errors : sum local = 3.95796e-11, global = 1.34212e-12, cumulative = -4.20481e-11
max/min FaceSonicCourant: 0.223507/0.056585
max/min kappa: 1/1
ExecutionTime = 0.11 s  ClockTime = 0 s

Mean and max Acoustic Courant Numbers = 0.0472484 0.111754
Courant Number max : 0.0119572 velocity magnitude: 18.2347
Time = 1.2e-05

diagonal:  Solving for rho, Initial residual = 0, Final residual = 0, No Iterations 0
rho max/min : 0.83124 / 0.710718
DILUPBiCG:  Solving for h, Initial residual = 0.0462207, Final residual = 1.85441e-11, No Iterations 3
max/min T: 291.398/286.743
DILUPBiCG:  Solving for p, Initial residual = 0.000956679, Final residual = 9.55726e-14, No Iterations 3
max(U): (15.1175 0.0122302 2.08107e-32)
max/min p: 68970/58970
diagonal:  Solving for rho, Initial residual = 0, Final residual = 0, No Iterations 0
rho max/min : 0.83124 / 0.710718
time step continuity errors : sum local = 1.47376e-14, global = 2.45537e-15, cumulative = -4.20456e-11
max/min FaceSonicCourant: 0.223507/0.0565861
max/min kappa: 1/1
ExecutionTime = 0.12 s  ClockTime = 0 s

Mean and max Acoustic Courant Numbers = 0.0472523 0.111754
Courant Number max : 0.012036 velocity magnitude: 18.3549
Time = 1.3e-05

diagonal:  Solving for rho, Initial residual = 0, Final residual = 0, No Iterations 0
rho max/min : 0.83124 / 0.710718
DILUPBiCG:  Solving for h, Initial residual = 0.0453027, Final residual = 1.28142e-11, No Iterations 3
max/min T: 291.64/286.632
DILUPBiCG:  Solving for p, Initial residual = 0.000974797, Final residual = 1.09041e-13, No Iterations 3
max(U): (15.6848 0.0123364 2.07299e-32)
max/min p: 68970/58970
diagonal:  Solving for rho, Initial residual = 0, Final residual = 0, No Iterations 0
rho max/min : 0.83124 / 0.710718
time step continuity errors : sum local = 1.67648e-14, global = 2.65352e-15, cumulative = -4.2043e-11
max/min FaceSonicCourant: 0.223507/0.056575
max/min kappa: 1/1
ExecutionTime = 0.12 s  ClockTime = 0 s

Mean and max Acoustic Courant Numbers = 0.0472563 0.111754
Courant Number max : 0.0121033 velocity magnitude: 18.4575
Time = 1.4e-05

diagonal:  Solving for rho, Initial residual = 0, Final residual = 0, No Iterations 0
rho max/min : 0.83124 / 0.710718
DILUPBiCG:  Solving for h, Initial residual = 0.0435291, Final residual = 8.59963e-12, No Iterations 3
max/min T: 291.873/286.407
DILUPBiCG:  Solving for p, Initial residual = 0.000995193, Final residual = 1.29903e-13, No Iterations 3
max(U): (16.1947 0.0143382 2.07299e-32)
max/min p: 68970/58970
diagonal:  Solving for rho, Initial residual = 0, Final residual = 0, No Iterations 0
rho max/min : 0.83124 / 0.710718
time step continuity errors : sum local = 1.99045e-14, global = 3.00676e-15, cumulative = -4.204e-11
max/min FaceSonicCourant: 0.223507/0.0565528
max/min kappa: 1/1
ExecutionTime = 0.13 s  ClockTime = 0 s

Mean and max Acoustic Courant Numbers = 0.0472603 0.111754
Courant Number max : 0.0121652 velocity magnitude: 18.5519
Time = 1.5e-05

diagonal:  Solving for rho, Initial residual = 0, Final residual = 0, No Iterations 0
rho max/min : 0.83124 / 0.710718
DILUPBiCG:  Solving for h, Initial residual = 0.0420927, Final residual = 5.68885e-12, No Iterations 3
max/min T: 292.096/286.186
DILUPBiCG:  Solving for p, Initial residual = 0.00101897, Final residual = 5.51877e-10, No Iterations 2
max(U): (16.6512 0.016188 2.073e-32)
max/min p: 68970/58970
diagonal:  Solving for rho, Initial residual = 0, Final residual = 0, No Iterations 0
rho max/min : 0.83124 / 0.710718
time step continuity errors : sum local = 8.38039e-11, global = 6.02314e-12, cumulative = -3.60168e-11
max/min FaceSonicCourant: 0.223507/0.0565309
max/min kappa: 1/1
ExecutionTime = 0.13 s  ClockTime = 0 s

Mean and max Acoustic Courant Numbers = 0.0472643 0.111754
Courant Number max : 0.0122563 velocity magnitude: 18.6909
Time = 1.6e-05

diagonal:  Solving for rho, Initial residual = 0, Final residual = 0, No Iterations 0
rho max/min : 0.83124 / 0.710718
DILUPBiCG:  Solving for h, Initial residual = 0.0405083, Final residual = 4.22709e-12, No Iterations 3
max/min T: 292.306/285.969
DILUPBiCG:  Solving for p, Initial residual = 0.00104241, Final residual = 1.52285e-10, No Iterations 2
max(U): (17.0575 0.0178718 2.09774e-32)
max/min p: 68970/58970
diagonal:  Solving for rho, Initial residual = 0, Final residual = 0, No Iterations 0
rho max/min : 0.83124 / 0.710718
time step continuity errors : sum local = 2.30773e-11, global = 2.0296e-12, cumulative = -3.39872e-11
max/min FaceSonicCourant: 0.223507/0.0565095
max/min kappa: 1/1
ExecutionTime = 0.14 s  ClockTime = 0 s

Mean and max Acoustic Courant Numbers = 0.0472683 0.111754
Courant Number max : 0.0123616 velocity magnitude: 18.8514
Time = 1.7e-05

diagonal:  Solving for rho, Initial residual = 0, Final residual = 0, No Iterations 0
rho max/min : 0.83124 / 0.710718
DILUPBiCG:  Solving for h, Initial residual = 0.0388007, Final residual = 4.44049e-12, No Iterations 3
max/min T: 292.5/285.759
DILUPBiCG:  Solving for p, Initial residual = 0.00106422, Final residual = 1.70246e-10, No Iterations 2
max(U): (17.4171 0.0193821 2.08881e-32)
max/min p: 68970/58970
diagonal:  Solving for rho, Initial residual = 0, Final residual = 0, No Iterations 0
rho max/min : 0.83124 / 0.710718
time step continuity errors : sum local = 2.57447e-11, global = 1.86611e-12, cumulative = -3.21211e-11
max/min FaceSonicCourant: 0.223507/0.0564887
max/min kappa: 1/1
ExecutionTime = 0.14 s  ClockTime = 0 s

Mean and max Acoustic Courant Numbers = 0.0472724 0.111754
Courant Number max : 0.0124707 velocity magnitude: 19.0178
Time = 1.8e-05

diagonal:  Solving for rho, Initial residual = 0, Final residual = 0, No Iterations 0
rho max/min : 0.83124 / 0.710718
DILUPBiCG:  Solving for h, Initial residual = 0.0370764, Final residual = 1.89484e-11, No Iterations 3
max/min T: 292.679/285.557
DILUPBiCG:  Solving for p, Initial residual = 0.00108401, Final residual = 1.85376e-10, No Iterations 2
max(U): (17.7332 0.0207158 2.08573e-32)
max/min p: 68970/58970
diagonal:  Solving for rho, Initial residual = 0, Final residual = 0, No Iterations 0
rho max/min : 0.83124 / 0.710718
time step continuity errors : sum local = 2.79723e-11, global = 2.2296e-12, cumulative = -2.98915e-11
max/min FaceSonicCourant: 0.223507/0.0564688
max/min kappa: 1/1
ExecutionTime = 0.15 s  ClockTime = 0 s

Mean and max Acoustic Courant Numbers = 0.0472765 0.111754
Courant Number max : 0.0125772 velocity magnitude: 19.1802
Time = 1.9e-05

diagonal:  Solving for rho, Initial residual = 0, Final residual = 0, No Iterations 0
rho max/min : 0.83124 / 0.710718
DILUPBiCG:  Solving for h, Initial residual = 0.0353954, Final residual = 2.07671e-12, No Iterations 3
max/min T: 292.841/285.365
DILUPBiCG:  Solving for p, Initial residual = 0.00110176, Final residual = 1.9055e-10, No Iterations 2
max(U): (18.0093 0.0218721 2.07026e-32)
max/min p: 68970/58970
diagonal:  Solving for rho, Initial residual = 0, Final residual = 0, No Iterations 0
rho max/min : 0.83124 / 0.710718
time step continuity errors : sum local = 2.86903e-11, global = 2.74663e-12, cumulative = -2.71449e-11
max/min FaceSonicCourant: 0.223507/0.0564498
max/min kappa: 1/1
ExecutionTime = 0.15 s  ClockTime = 0 s

Mean and max Acoustic Courant Numbers = 0.0472807 0.111754
Courant Number max : 0.0126772 velocity magnitude: 19.3328
Time = 2e-05

diagonal:  Solving for rho, Initial residual = 0, Final residual = 0, No Iterations 0
rho max/min : 0.83124 / 0.710718
DILUPBiCG:  Solving for h, Initial residual = 0.0337752, Final residual = 1.73306e-12, No Iterations 3
max/min T: 292.986/285.183
DILUPBiCG:  Solving for p, Initial residual = 0.00111758, Final residual = 1.86963e-10, No Iterations 2
max(U): (18.2485 0.0228514 2.05533e-32)
max/min p: 68970/58970
diagonal:  Solving for rho, Initial residual = 0, Final residual = 0, No Iterations 0
rho max/min : 0.83124 / 0.710718
time step continuity errors : sum local = 2.80879e-11, global = 3.40927e-12, cumulative = -2.37356e-11
max/min FaceSonicCourant: 0.223507/0.0564319
max/min kappa: 1/1
ExecutionTime = 0.16 s  ClockTime = 0 s

Mean and max Acoustic Courant Numbers = 0.0472849 0.111754
Courant Number max : 0.0127686 velocity magnitude: 19.4721
Time = 2.1e-05

diagonal:  Solving for rho, Initial residual = 0, Final residual = 0, No Iterations 0
rho max/min : 0.83124 / 0.710718
DILUPBiCG:  Solving for h, Initial residual = 0.0322892, Final residual = 1.46168e-12, No Iterations 3
max/min T: 293.117/285.013
DILUPBiCG:  Solving for p, Initial residual = 0.00113164, Final residual = 1.7743e-10, No Iterations 2
max(U): (18.4542 0.0255109 2.04363e-32)
max/min p: 68970/58970
diagonal:  Solving for rho, Initial residual = 0, Final residual = 0, No Iterations 0
rho max/min : 0.83124 / 0.710718
time step continuity errors : sum local = 2.65958e-11, global = 3.90562e-12, cumulative = -1.983e-11
max/min FaceSonicCourant: 0.223507/0.056415
max/min kappa: 1/1
ExecutionTime = 0.16 s  ClockTime = 0 s

Mean and max Acoustic Courant Numbers = 0.0472892 0.111754
Courant Number max : 0.0128503 velocity magnitude: 19.5967
Time = 2.2e-05

diagonal:  Solving for rho, Initial residual = 0, Final residual = 0, No Iterations 0
rho max/min : 0.83124 / 0.710718
DILUPBiCG:  Solving for h, Initial residual = 0.0308851, Final residual = 1.31109e-12, No Iterations 3
max/min T: 293.233/284.855
DILUPBiCG:  Solving for p, Initial residual = 0.00114409, Final residual = 1.66278e-10, No Iterations 2
max(U): (18.6295 0.0282196 2.04006e-32)
max/min p: 68970/58970
diagonal:  Solving for rho, Initial residual = 0, Final residual = 0, No Iterations 0
rho max/min : 0.83124 / 0.710718
time step continuity errors : sum local = 2.48675e-11, global = 4.34149e-12, cumulative = -1.54885e-11
max/min FaceSonicCourant: 0.223507/0.0563993
max/min kappa: 1/1
ExecutionTime = 0.17 s  ClockTime = 0 s

Mean and max Acoustic Courant Numbers = 0.0472935 0.111754
Courant Number max : 0.012922 velocity magnitude: 19.706
Time = 2.3e-05

diagonal:  Solving for rho, Initial residual = 0, Final residual = 0, No Iterations 0
rho max/min : 0.83124 / 0.710718
DILUPBiCG:  Solving for h, Initial residual = 0.029517, Final residual = 1.30082e-12, No Iterations 3
max/min T: 293.334/284.708
DILUPBiCG:  Solving for p, Initial residual = 0.00115512, Final residual = 1.54295e-10, No Iterations 2
max(U): (18.7771 0.0307149 2.20864e-32)
max/min p: 68970/58970
diagonal:  Solving for rho, Initial residual = 0, Final residual = 0, No Iterations 0
rho max/min : 0.83124 / 0.710718
time step continuity errors : sum local = 2.30224e-11, global = 4.95168e-12, cumulative = -1.05368e-11
max/min FaceSonicCourant: 0.223507/0.0563848
max/min kappa: 1/1
ExecutionTime = 0.17 s  ClockTime = 0 s

Mean and max Acoustic Courant Numbers = 0.0472979 0.111754
Courant Number max : 0.0129839 velocity magnitude: 19.8005
Time = 2.4e-05

diagonal:  Solving for rho, Initial residual = 0, Final residual = 0, No Iterations 0
rho max/min : 0.83124 / 0.710718
DILUPBiCG:  Solving for h, Initial residual = 0.0282023, Final residual = 9.98115e-13, No Iterations 3
max/min T: 293.422/284.572
DILUPBiCG:  Solving for p, Initial residual = 0.00116486, Final residual = 1.56604e-10, No Iterations 2
max(U): (18.9 0.0329585 2.09619e-32)
max/min p: 68970/58970
diagonal:  Solving for rho, Initial residual = 0, Final residual = 0, No Iterations 0
rho max/min : 0.83124 / 0.710718
time step continuity errors : sum local = 2.33128e-11, global = 4.65074e-12, cumulative = -5.88608e-12
max/min FaceSonicCourant: 0.223507/0.0563714
max/min kappa: 1/1
ExecutionTime = 0.18 s  ClockTime = 0 s

Mean and max Acoustic Courant Numbers = 0.0473022 0.111754
Courant Number max : 0.0130365 velocity magnitude: 19.8806
Time = 2.5e-05

diagonal:  Solving for rho, Initial residual = 0, Final residual = 0, No Iterations 0
rho max/min : 0.83124 / 0.710718
DILUPBiCG:  Solving for h, Initial residual = 0.0269502, Final residual = 8.17943e-13, No Iterations 3
max/min T: 293.496/284.448
DILUPBiCG:  Solving for p, Initial residual = 0.00117452, Final residual = 1.58042e-10, No Iterations 2
max(U): (19.0004 0.0349263 2.20123e-32)
max/min p: 68970/58970
diagonal:  Solving for rho, Initial residual = 0, Final residual = 0, No Iterations 0
rho max/min : 0.83124 / 0.710718
time step continuity errors : sum local = 2.34719e-11, global = 5.9495e-12, cumulative = 6.34248e-14
max/min FaceSonicCourant: 0.223507/0.0563591
max/min kappa: 1/1
ExecutionTime = 0.18 s  ClockTime = 0 s

Mean and max Acoustic Courant Numbers = 0.0473066 0.111754
Courant Number max : 0.0130951 velocity magnitude: 19.97
Time = 2.6e-05

diagonal:  Solving for rho, Initial residual = 0, Final residual = 0, No Iterations 0
rho max/min : 0.83124 / 0.710718
DILUPBiCG:  Solving for h, Initial residual = 0.025789, Final residual = 7.70474e-13, No Iterations 3
max/min T: 293.557/284.336
DILUPBiCG:  Solving for p, Initial residual = 0.0011842, Final residual = 1.52689e-10, No Iterations 2
max(U): (19.0803 0.0366407 2.08069e-32)
max/min p: 68970/58970
diagonal:  Solving for rho, Initial residual = 0, Final residual = 0, No Iterations 0
rho max/min : 0.83124 / 0.710718
time step continuity errors : sum local = 2.26234e-11, global = 6.16073e-12, cumulative = 6.22415e-12
max/min FaceSonicCourant: 0.223507/0.0563479
max/min kappa: 1/1
ExecutionTime = 0.19 s  ClockTime = 0 s

Mean and max Acoustic Courant Numbers = 0.047311 0.111754
Courant Number max : 0.0131565 velocity magnitude: 20.0637
Time = 2.7e-05

diagonal:  Solving for rho, Initial residual = 0, Final residual = 0, No Iterations 0
rho max/min : 0.83124 / 0.710718
DILUPBiCG:  Solving for h, Initial residual = 0.0247089, Final residual = 6.60725e-13, No Iterations 3
max/min T: 293.605/284.235
DILUPBiCG:  Solving for p, Initial residual = 0.00119275, Final residual = 1.59294e-10, No Iterations 2
max(U): (19.1417 0.0384209 2.15411e-32)
max/min p: 68970/58970
diagonal:  Solving for rho, Initial residual = 0, Final residual = 0, No Iterations 0
rho max/min : 0.83124 / 0.710718
time step continuity errors : sum local = 2.35461e-11, global = 6.21208e-12, cumulative = 1.24362e-11
max/min FaceSonicCourant: 0.223507/0.0563379
max/min kappa: 1/1
ExecutionTime = 0.19 s  ClockTime = 0 s

Mean and max Acoustic Courant Numbers = 0.0473154 0.111754
Courant Number max : 0.0132043 velocity magnitude: 20.1365
Time = 2.8e-05

diagonal:  Solving for rho, Initial residual = 0, Final residual = 0, No Iterations 0
rho max/min : 0.83124 / 0.710718
DILUPBiCG:  Solving for h, Initial residual = 0.0236762, Final residual = 8.96611e-13, No Iterations 3
max/min T: 293.641/284.144
DILUPBiCG:  Solving for p, Initial residual = 0.00119984, Final residual = 1.66401e-10, No Iterations 2
max(U): (19.1865 0.0399476 2.08522e-32)
max/min p: 68970/58970
diagonal:  Solving for rho, Initial residual = 0, Final residual = 0, No Iterations 0
rho max/min : 0.83124 / 0.710718
time step continuity errors : sum local = 2.45379e-11, global = 6.04375e-12, cumulative = 1.848e-11
max/min FaceSonicCourant: 0.223507/0.0563289
max/min kappa: 1/1
ExecutionTime = 0.2 s  ClockTime = 0 s

Mean and max Acoustic Courant Numbers = 0.0473198 0.111754
Courant Number max : 0.0132386 velocity magnitude: 20.1889
Time = 2.9e-05

diagonal:  Solving for rho, Initial residual = 0, Final residual = 0, No Iterations 0
rho max/min : 0.83124 / 0.710718
DILUPBiCG:  Solving for h, Initial residual = 0.0226861, Final residual = 1.47642e-12, No Iterations 3
max/min T: 293.724/284.064
DILUPBiCG:  Solving for p, Initial residual = 0.00120542, Final residual = 1.74316e-10, No Iterations 2
max(U): (19.2166 0.0412236 2.08532e-32)
max/min p: 68970/58970
diagonal:  Solving for rho, Initial residual = 0, Final residual = 0, No Iterations 0
rho max/min : 0.83124 / 0.710718
time step continuity errors : sum local = 2.56452e-11, global = 6.13449e-12, cumulative = 2.46145e-11
max/min FaceSonicCourant: 0.223507/0.0563209
max/min kappa: 1/1
ExecutionTime = 0.2 s  ClockTime = 0 s

Mean and max Acoustic Courant Numbers = 0.0473243 0.111754
Courant Number max : 0.0132601 velocity magnitude: 20.2217
Time = 3e-05

diagonal:  Solving for rho, Initial residual = 0, Final residual = 0, No Iterations 0
rho max/min : 0.83124 / 0.710718
DILUPBiCG:  Solving for h, Initial residual = 0.0218491, Final residual = 1.30005e-12, No Iterations 3
max/min T: 293.874/283.993
DILUPBiCG:  Solving for p, Initial residual = 0.00120944, Final residual = 1.96475e-10, No Iterations 2
max(U): (19.2343 0.0423439 2.07768e-32)
max/min p: 68970/58970
diagonal:  Solving for rho, Initial residual = 0, Final residual = 0, No Iterations 0
rho max/min : 0.83124 / 0.710718
time step continuity errors : sum local = 2.88395e-11, global = 7.72326e-12, cumulative = 3.23377e-11
max/min FaceSonicCourant: 0.223507/0.0563139
max/min kappa: 1/1
ExecutionTime = 0.21 s  ClockTime = 0 s

Mean and max Acoustic Courant Numbers = 0.0473289 0.111754
Courant Number max : 0.013267 velocity magnitude: 20.2322
Time = 3.1e-05

diagonal:  Solving for rho, Initial residual = 0, Final residual = 0, No Iterations 0
rho max/min : 0.83124 / 0.710718
DILUPBiCG:  Solving for h, Initial residual = 0.0211806, Final residual = 8.57591e-13, No Iterations 3
max/min T: 294.014/283.931
DILUPBiCG:  Solving for p, Initial residual = 0.00121202, Final residual = 1.84897e-10, No Iterations 2
max(U): (19.2414 0.0455148 2.07296e-32)
max/min p: 68970/58970
diagonal:  Solving for rho, Initial residual = 0, Final residual = 0, No Iterations 0
rho max/min : 0.83124 / 0.710718
time step continuity errors : sum local = 2.70781e-11, global = 5.70516e-12, cumulative = 3.80429e-11
max/min FaceSonicCourant: 0.223507/0.0563078
max/min kappa: 1/1
ExecutionTime = 0.21 s  ClockTime = 0 s

Mean and max Acoustic Courant Numbers = 0.0473335 0.111754
Courant Number max : 0.0132596 velocity magnitude: 20.221
Time = 3.2e-05

diagonal:  Solving for rho, Initial residual = 0, Final residual = 0, No Iterations 0
rho max/min : 0.83124 / 0.710718
DILUPBiCG:  Solving for h, Initial residual = 0.020554, Final residual = 6.55844e-13, No Iterations 3
max/min T: 294.142/283.877
DILUPBiCG:  Solving for p, Initial residual = 0.00121365, Final residual = 1.7276e-10, No Iterations 2
max(U): (19.248 0.0483095 2.07297e-32)
max/min p: 68970/58970
diagonal:  Solving for rho, Initial residual = 0, Final residual = 0, No Iterations 0
rho max/min : 0.83124 / 0.710718
time step continuity errors : sum local = 2.52423e-11, global = 5.25109e-12, cumulative = 4.3294e-11
max/min FaceSonicCourant: 0.223507/0.0563024
max/min kappa: 1/1
ExecutionTime = 0.22 s  ClockTime = 0 s

Mean and max Acoustic Courant Numbers = 0.047338 0.111754
Courant Number max : 0.0132421 velocity magnitude: 20.1941
Time = 3.3e-05

diagonal:  Solving for rho, Initial residual = 0, Final residual = 0, No Iterations 0
rho max/min : 0.83124 / 0.710718
DILUPBiCG:  Solving for h, Initial residual = 0.0199432, Final residual = 6.26095e-13, No Iterations 3
max/min T: 294.259/283.832
DILUPBiCG:  Solving for p, Initial residual = 0.00121469, Final residual = 1.6397e-10, No Iterations 2
max(U): (19.2527 0.0507011 2.07298e-32)
max/min p: 68970/58970
diagonal:  Solving for rho, Initial residual = 0, Final residual = 0, No Iterations 0
rho max/min : 0.83124 / 0.710718
time step continuity errors : sum local = 2.39023e-11, global = 4.91437e-12, cumulative = 4.82084e-11
max/min FaceSonicCourant: 0.223507/0.0562979
max/min kappa: 1/1
ExecutionTime = 0.22 s  ClockTime = 0 s

Mean and max Acoustic Courant Numbers = 0.0473426 0.111754
Courant Number max : 0.0132173 velocity magnitude: 20.1564
Time = 3.4e-05

diagonal:  Solving for rho, Initial residual = 0, Final residual = 0, No Iterations 0
rho max/min : 0.83124 / 0.710718
DILUPBiCG:  Solving for h, Initial residual = 0.0193442, Final residual = 4.49132e-13, No Iterations 3
max/min T: 294.365/283.795
DILUPBiCG:  Solving for p, Initial residual = 0.00121529, Final residual = 1.65334e-10, No Iterations 2
max(U): (19.2477 0.0526793 2.07298e-32)
max/min p: 68970/58970
diagonal:  Solving for rho, Initial residual = 0, Final residual = 0, No Iterations 0
rho max/min : 0.83124 / 0.710718
time step continuity errors : sum local = 2.40464e-11, global = 4.47166e-12, cumulative = 5.268e-11
max/min FaceSonicCourant: 0.223507/0.0562943
max/min kappa: 1/1
ExecutionTime = 0.23 s  ClockTime = 0 s

Mean and max Acoustic Courant Numbers = 0.0473471 0.111754
Courant Number max : 0.0131879 velocity magnitude: 20.1115
Time = 3.5e-05

diagonal:  Solving for rho, Initial residual = 0, Final residual = 0, No Iterations 0
rho max/min : 0.83124 / 0.710718
DILUPBiCG:  Solving for h, Initial residual = 0.0187596, Final residual = 5.01561e-13, No Iterations 3
max/min T: 294.461/283.737
DILUPBiCG:  Solving for p, Initial residual = 0.00121558, Final residual = 1.58071e-10, No Iterations 2
max(U): (19.234 0.0542437 2.07298e-32)
max/min p: 68970/58970
diagonal:  Solving for rho, Initial residual = 0, Final residual = 0, No Iterations 0
rho max/min : 0.83124 / 0.710718
time step continuity errors : sum local = 2.29397e-11, global = 5.31125e-12, cumulative = 5.79913e-11
max/min FaceSonicCourant: 0.223507/0.0562886
max/min kappa: 1/1
ExecutionTime = 0.24 s  ClockTime = 0 s

Mean and max Acoustic Courant Numbers = 0.0473517 0.111754
Courant Number max : 0.0131555 velocity magnitude: 20.0621
Time = 3.6e-05

diagonal:  Solving for rho, Initial residual = 0, Final residual = 0, No Iterations 0
rho max/min : 0.83124 / 0.710718
DILUPBiCG:  Solving for h, Initial residual = 0.0182404, Final residual = 4.91425e-13, No Iterations 3
max/min T: 294.545/283.625
DILUPBiCG:  Solving for p, Initial residual = 0.00121567, Final residual = 1.50377e-10, No Iterations 2
max(U): (19.2117 0.0554013 2.07299e-32)
max/min p: 68970/58970
diagonal:  Solving for rho, Initial residual = 0, Final residual = 0, No Iterations 0
rho max/min : 0.83124 / 0.710718
time step continuity errors : sum local = 2.17756e-11, global = 6.32408e-12, cumulative = 6.43153e-11
max/min FaceSonicCourant: 0.223507/0.0562775
max/min kappa: 1/1
ExecutionTime = 0.25 s  ClockTime = 0 s

Mean and max Acoustic Courant Numbers = 0.0473562 0.111754
Courant Number max : 0.0131212 velocity magnitude: 20.0099
Time = 3.7e-05

diagonal:  Solving for rho, Initial residual = 0, Final residual = 0, No Iterations 0
rho max/min : 0.83124 / 0.710718
DILUPBiCG:  Solving for h, Initial residual = 0.0177462, Final residual = 3.73894e-13, No Iterations 3
max/min T: 294.62/283.522
DILUPBiCG:  Solving for p, Initial residual = 0.00121573, Final residual = 1.55095e-10, No Iterations 2
max(U): (19.1809 0.0561649 2.07299e-32)
max/min p: 68970/58970
diagonal:  Solving for rho, Initial residual = 0, Final residual = 0, No Iterations 0
rho max/min : 0.83124 / 0.710718
time step continuity errors : sum local = 2.2409e-11, global = 7.16688e-12, cumulative = 7.14822e-11
max/min FaceSonicCourant: 0.223507/0.0562672
max/min kappa: 1/1
ExecutionTime = 0.25 s  ClockTime = 0 s

Mean and max Acoustic Courant Numbers = 0.0473607 0.111754
Courant Number max : 0.0130888 velocity magnitude: 19.9605
Time = 3.8e-05

diagonal:  Solving for rho, Initial residual = 0, Final residual = 0, No Iterations 0
rho max/min : 0.83124 / 0.710718
DILUPBiCG:  Solving for h, Initial residual = 0.0172674, Final residual = 3.37104e-13, No Iterations 3
max/min T: 294.685/283.426
DILUPBiCG:  Solving for p, Initial residual = 0.00121661, Final residual = 1.78107e-10, No Iterations 2
max(U): (19.1493 0.0564672 2.0744e-32)
max/min p: 68970/58970
diagonal:  Solving for rho, Initial residual = 0, Final residual = 0, No Iterations 0
rho max/min : 0.83124 / 0.710718
time step continuity errors : sum local = 2.56762e-11, global = 5.27697e-12, cumulative = 7.67592e-11
max/min FaceSonicCourant: 0.223507/0.0562577
max/min kappa: 1/1
ExecutionTime = 0.26 s  ClockTime = 0 s

Mean and max Acoustic Courant Numbers = 0.0473654 0.111754
Courant Number max : 0.0130427 velocity magnitude: 19.8902
Time = 3.9e-05

diagonal:  Solving for rho, Initial residual = 0, Final residual = 0, No Iterations 0
rho max/min : 0.83124 / 0.710718
DILUPBiCG:  Solving for h, Initial residual = 0.0168046, Final residual = 3.39665e-13, No Iterations 3
max/min T: 294.741/283.337
DILUPBiCG:  Solving for p, Initial residual = 0.00121372, Final residual = 1.81829e-10, No Iterations 2
max(U): (19.1183 0.0563299 2.08377e-32)
max/min p: 68970/58970
diagonal:  Solving for rho, Initial residual = 0, Final residual = 0, No Iterations 0
rho max/min : 0.83124 / 0.710718
time step continuity errors : sum local = 2.61533e-11, global = 8.59652e-13, cumulative = 7.76188e-11
max/min FaceSonicCourant: 0.223507/0.0562489
max/min kappa: 1/1
ExecutionTime = 0.26 s  ClockTime = 0 s

Mean and max Acoustic Courant Numbers = 0.0473699 0.111754
Courant Number max : 0.0129421 velocity magnitude: 19.7367
Time = 4e-05

diagonal:  Solving for rho, Initial residual = 0, Final residual = 0, No Iterations 0
rho max/min : 0.83124 / 0.710718
DILUPBiCG:  Solving for h, Initial residual = 0.0163676, Final residual = 3.33508e-13, No Iterations 3
max/min T: 294.789/283.256
DILUPBiCG:  Solving for p, Initial residual = 0.00121156, Final residual = 1.68859e-10, No Iterations 2
max(U): (19.0881 0.0570673 2.08832e-32)
max/min p: 68970/58970
diagonal:  Solving for rho, Initial residual = 0, Final residual = 0, No Iterations 0
rho max/min : 0.83124 / 0.710718
time step continuity errors : sum local = 2.42323e-11, global = 1.71419e-12, cumulative = 7.9333e-11
max/min FaceSonicCourant: 0.223507/0.0562409
max/min kappa: 1/1
ExecutionTime = 0.27 s  ClockTime = 0 s

Mean and max Acoustic Courant Numbers = 0.0473745 0.111754
Courant Number max : 0.0128877 velocity magnitude: 19.6537
Time = 4.1e-05

diagonal:  Solving for rho, Initial residual = 0, Final residual = 0, No Iterations 0
rho max/min : 0.83124 / 0.710718
DILUPBiCG:  Solving for h, Initial residual = 0.015971, Final residual = 9.89058e-10, No Iterations 2
max/min T: 294.828/283.183
DILUPBiCG:  Solving for p, Initial residual = 0.00121049, Final residual = 1.53221e-10, No Iterations 2
max(U): (19.0586 0.059942 2.08847e-32)
max/min p: 68970/58970
diagonal:  Solving for rho, Initial residual = 0, Final residual = 0, No Iterations 0
rho max/min : 0.83124 / 0.710718
time step continuity errors : sum local = 2.19373e-11, global = 1.05408e-12, cumulative = 8.03871e-11
max/min FaceSonicCourant: 0.223507/0.0562336
max/min kappa: 1/1
ExecutionTime = 0.27 s  ClockTime = 0 s

Mean and max Acoustic Courant Numbers = 0.0473791 0.111754
Courant Number max : 0.0128362 velocity magnitude: 19.5752
Time = 4.2e-05

diagonal:  Solving for rho, Initial residual = 0, Final residual = 0, No Iterations 0
rho max/min : 0.83124 / 0.710718
DILUPBiCG:  Solving for h, Initial residual = 0.0155642, Final residual = 8.06807e-10, No Iterations 2
max/min T: 294.86/283.117
DILUPBiCG:  Solving for p, Initial residual = 0.00120985, Final residual = 1.55126e-10, No Iterations 2
max(U): (19.0297 0.0623665 2.08793e-32)
max/min p: 68970/58970
diagonal:  Solving for rho, Initial residual = 0, Final residual = 0, No Iterations 0
rho max/min : 0.83124 / 0.710718
time step continuity errors : sum local = 2.21582e-11, global = 2.78525e-12, cumulative = 8.31724e-11
max/min FaceSonicCourant: 0.223507/0.0562271
max/min kappa: 1/1
ExecutionTime = 0.28 s  ClockTime = 0 s

Mean and max Acoustic Courant Numbers = 0.0473836 0.111754
Courant Number max : 0.0127861 velocity magnitude: 19.4988
Time = 4.3e-05

diagonal:  Solving for rho, Initial residual = 0, Final residual = 0, No Iterations 0
rho max/min : 0.83124 / 0.710718
DILUPBiCG:  Solving for h, Initial residual = 0.015164, Final residual = 8.51941e-10, No Iterations 2
max/min T: 294.885/283.059
DILUPBiCG:  Solving for p, Initial residual = 0.00120944, Final residual = 1.51387e-10, No Iterations 2
max(U): (19.0012 0.0643421 2.09258e-32)
max/min p: 68970/58970
diagonal:  Solving for rho, Initial residual = 0, Final residual = 0, No Iterations 0
rho max/min : 0.83124 / 0.710718
time step continuity errors : sum local = 2.15734e-11, global = 3.38595e-12, cumulative = 8.65583e-11
max/min FaceSonicCourant: 0.223507/0.0562213
max/min kappa: 1/1
ExecutionTime = 0.28 s  ClockTime = 0 s

Mean and max Acoustic Courant Numbers = 0.0473881 0.111754
Courant Number max : 0.0127382 velocity magnitude: 19.4257
Time = 4.4e-05

diagonal:  Solving for rho, Initial residual = 0, Final residual = 0, No Iterations 0
rho max/min : 0.83124 / 0.710718
DILUPBiCG:  Solving for h, Initial residual = 0.0147746, Final residual = 8.60296e-10, No Iterations 2
max/min T: 294.904/283.007
DILUPBiCG:  Solving for p, Initial residual = 0.00120921, Final residual = 1.49547e-10, No Iterations 2
max(U): (18.9722 0.0658803 2.073e-32)
max/min p: 68970/58970
diagonal:  Solving for rho, Initial residual = 0, Final residual = 0, No Iterations 0
rho max/min : 0.83124 / 0.710718
time step continuity errors : sum local = 2.12608e-11, global = 3.71096e-12, cumulative = 9.02693e-11
max/min FaceSonicCourant: 0.223507/0.0562162
max/min kappa: 1/1
ExecutionTime = 0.29 s  ClockTime = 0 s

Mean and max Acoustic Courant Numbers = 0.0473927 0.111754
Courant Number max : 0.0126925 velocity magnitude: 19.3561
Time = 4.5e-05

diagonal:  Solving for rho, Initial residual = 0, Final residual = 0, No Iterations 0
rho max/min : 0.83124 / 0.710718
DILUPBiCG:  Solving for h, Initial residual = 0.014398, Final residual = 8.44659e-10, No Iterations 2
max/min T: 294.916/282.962
DILUPBiCG:  Solving for p, Initial residual = 0.00120954, Final residual = 1.42493e-10, No Iterations 2
max(U): (18.9403 0.0669942 2.073e-32)
max/min p: 68970/58970
diagonal:  Solving for rho, Initial residual = 0, Final residual = 0, No Iterations 0
rho max/min : 0.83124 / 0.710718
time step continuity errors : sum local = 2.02099e-11, global = 4.71162e-12, cumulative = 9.49809e-11
max/min FaceSonicCourant: 0.223507/0.0562117
max/min kappa: 1/1
ExecutionTime = 0.29 s  ClockTime = 0 s

Mean and max Acoustic Courant Numbers = 0.0473972 0.111754
Courant Number max : 0.0126517 velocity magnitude: 19.2938
Time = 4.6e-05

diagonal:  Solving for rho, Initial residual = 0, Final residual = 0, No Iterations 0
rho max/min : 0.83124 / 0.710718
DILUPBiCG:  Solving for h, Initial residual = 0.0140277, Final residual = 8.5375e-10, No Iterations 2
max/min T: 294.982/282.923
DILUPBiCG:  Solving for p, Initial residual = 0.00121019, Final residual = 1.40833e-10, No Iterations 2
max(U): (18.9067 0.0676059 2.07301e-32)
max/min p: 68970/58970
diagonal:  Solving for rho, Initial residual = 0, Final residual = 0, No Iterations 0
rho max/min : 0.83124 / 0.710718
time step continuity errors : sum local = 1.99272e-11, global = 4.24436e-12, cumulative = 9.92252e-11
max/min FaceSonicCourant: 0.223507/0.0562079
max/min kappa: 1/1
ExecutionTime = 0.3 s  ClockTime = 0 s

Mean and max Acoustic Courant Numbers = 0.0474018 0.111754
Courant Number max : 0.012618 velocity magnitude: 19.2424
Time = 4.7e-05

diagonal:  Solving for rho, Initial residual = 0, Final residual = 0, No Iterations 0
rho max/min : 0.83124 / 0.710718
DILUPBiCG:  Solving for h, Initial residual = 0.0137061, Final residual = 7.73209e-10, No Iterations 2
max/min T: 295.051/282.89
DILUPBiCG:  Solving for p, Initial residual = 0.00121132, Final residual = 1.46912e-10, No Iterations 2
max(U): (18.8723 0.0677515 2.07301e-32)
max/min p: 68970/58970
diagonal:  Solving for rho, Initial residual = 0, Final residual = 0, No Iterations 0
rho max/min : 0.83124 / 0.710718
time step continuity errors : sum local = 2.07394e-11, global = 2.11852e-12, cumulative = 1.01344e-10
max/min FaceSonicCourant: 0.223507/0.0562046
max/min kappa: 1/1
ExecutionTime = 0.3 s  ClockTime = 0 s

Mean and max Acoustic Courant Numbers = 0.0474064 0.111754
Courant Number max : 0.0125833 velocity magnitude: 19.1895
Time = 4.8e-05

diagonal:  Solving for rho, Initial residual = 0, Final residual = 0, No Iterations 0
rho max/min : 0.83124 / 0.710718
DILUPBiCG:  Solving for h, Initial residual = 0.0134107, Final residual = 7.34422e-10, No Iterations 2
max/min T: 295.114/282.862
DILUPBiCG:  Solving for p, Initial residual = 0.00121443, Final residual = 1.40666e-10, No Iterations 2
max(U): (18.8378 0.0674899 2.07301e-32)
max/min p: 68970/58970
diagonal:  Solving for rho, Initial residual = 0, Final residual = 0, No Iterations 0
rho max/min : 0.83124 / 0.710718
time step continuity errors : sum local = 1.98122e-11, global = 7.86854e-14, cumulative = 1.01422e-10
max/min FaceSonicCourant: 0.223507/0.0562018
max/min kappa: 1/1
ExecutionTime = 0.31 s  ClockTime = 0 s

Mean and max Acoustic Courant Numbers = 0.0474109 0.111754
Courant Number max : 0.0125485 velocity magnitude: 19.1364
Time = 4.9e-05

diagonal:  Solving for rho, Initial residual = 0, Final residual = 0, No Iterations 0
rho max/min : 0.83124 / 0.710718
DILUPBiCG:  Solving for h, Initial residual = 0.0131256, Final residual = 6.63424e-10, No Iterations 2
max/min T: 295.17/282.839
DILUPBiCG:  Solving for p, Initial residual = 0.00121757, Final residual = 1.37263e-10, No Iterations 2
max(U): (18.8037 0.0668851 2.07301e-32)
max/min p: 68970/58970
diagonal:  Solving for rho, Initial residual = 0, Final residual = 0, No Iterations 0
rho max/min : 0.83124 / 0.710718
time step continuity errors : sum local = 1.92883e-11, global = -5.34084e-14, cumulative = 1.01369e-10
max/min FaceSonicCourant: 0.223507/0.0561996
max/min kappa: 1/1
ExecutionTime = 0.31 s  ClockTime = 0 s

Mean and max Acoustic Courant Numbers = 0.0474155 0.111754
Courant Number max : 0.0125142 velocity magnitude: 19.0841
Time = 5e-05

diagonal:  Solving for rho, Initial residual = 0, Final residual = 0, No Iterations 0
rho max/min : 0.83124 / 0.710718
DILUPBiCG:  Solving for h, Initial residual = 0.0128496, Final residual = 6.02357e-10, No Iterations 2
max/min T: 295.22/282.821
DILUPBiCG:  Solving for p, Initial residual = 0.00122335, Final residual = 1.3548e-10, No Iterations 2
max(U): (18.7706 0.0679046 2.07301e-32)
max/min p: 68970/58970
diagonal:  Solving for rho, Initial residual = 0, Final residual = 0, No Iterations 0
rho max/min : 0.83124 / 0.710718
time step continuity errors : sum local = 1.89932e-11, global = 1.26124e-12, cumulative = 1.0263e-10
max/min FaceSonicCourant: 0.223507/0.0561977
max/min kappa: 1/1
ExecutionTime = 0.34 s  ClockTime = 0 s

Mean and max Acoustic Courant Numbers = 0.04742 0.111754
Courant Number max : 0.0124811 velocity magnitude: 19.0337
Time = 5.1e-05

diagonal:  Solving for rho, Initial residual = 0, Final residual = 0, No Iterations 0
rho max/min : 0.83124 / 0.710718
DILUPBiCG:  Solving for h, Initial residual = 0.012592, Final residual = 5.25055e-10, No Iterations 2
max/min T: 295.265/282.805
DILUPBiCG:  Solving for p, Initial residual = 0.00123082, Final residual = 1.33643e-10, No Iterations 2
max(U): (18.7392 0.0703009 2.07302e-32)
max/min p: 68970/58970
diagonal:  Solving for rho, Initial residual = 0, Final residual = 0, No Iterations 0
rho max/min : 0.83124 / 0.710718
time step continuity errors : sum local = 1.86915e-11, global = 2.09163e-12, cumulative = 1.04722e-10
max/min FaceSonicCourant: 0.223507/0.0561962
max/min kappa: 1/1
ExecutionTime = 0.35 s  ClockTime = 0 s

Mean and max Acoustic Courant Numbers = 0.0474246 0.111754
Courant Number max : 0.0124501 velocity magnitude: 18.9865
Time = 5.2e-05

diagonal:  Solving for rho, Initial residual = 0, Final residual = 0, No Iterations 0
rho max/min : 0.83124 / 0.710718
DILUPBiCG:  Solving for h, Initial residual = 0.0123374, Final residual = 5.39359e-10, No Iterations 2
max/min T: 295.303/282.794
DILUPBiCG:  Solving for p, Initial residual = 0.00123801, Final residual = 1.35351e-10, No Iterations 2
max(U): (18.7383 0.0722309 2.07302e-32)
max/min p: 68970/58970
diagonal:  Solving for rho, Initial residual = 0, Final residual = 0, No Iterations 0
rho max/min : 0.83124 / 0.710718
time step continuity errors : sum local = 1.88855e-11, global = 2.88398e-12, cumulative = 1.07606e-10
max/min FaceSonicCourant: 0.223507/0.056195
max/min kappa: 1/1
ExecutionTime = 0.36 s  ClockTime = 0 s

Mean and max Acoustic Courant Numbers = 0.0474291 0.111754
Courant Number max : 0.0124136 velocity magnitude: 18.9308
Time = 5.3e-05

diagonal:  Solving for rho, Initial residual = 0, Final residual = 0, No Iterations 0
rho max/min : 0.83124 / 0.710718
DILUPBiCG:  Solving for h, Initial residual = 0.0120975, Final residual = 4.93234e-10, No Iterations 2
max/min T: 295.337/282.785
DILUPBiCG:  Solving for p, Initial residual = 0.00124431, Final residual = 1.43177e-10, No Iterations 2
max(U): (18.7602 0.0736693 2.07302e-32)
max/min p: 68970/58970
diagonal:  Solving for rho, Initial residual = 0, Final residual = 0, No Iterations 0
rho max/min : 0.83124 / 0.710718
time step continuity errors : sum local = 1.99297e-11, global = 3.93056e-12, cumulative = 1.11536e-10
max/min FaceSonicCourant: 0.223507/0.0561942
max/min kappa: 1/1
ExecutionTime = 0.36 s  ClockTime = 0 s

Mean and max Acoustic Courant Numbers = 0.0474336 0.111754
Courant Number max : 0.012404 velocity magnitude: 18.9161
Time = 5.4e-05

diagonal:  Solving for rho, Initial residual = 0, Final residual = 0, No Iterations 0
rho max/min : 0.83124 / 0.710718
DILUPBiCG:  Solving for h, Initial residual = 0.011866, Final residual = 4.92378e-10, No Iterations 2
max/min T: 295.366/282.774
DILUPBiCG:  Solving for p, Initial residual = 0.00124939, Final residual = 1.52328e-10, No Iterations 2
max(U): (18.7767 0.0745591 2.07301e-32)
max/min p: 68970/58970
diagonal:  Solving for rho, Initial residual = 0, Final residual = 0, No Iterations 0
rho max/min : 0.83124 / 0.710718
time step continuity errors : sum local = 2.11524e-11, global = 4.89578e-12, cumulative = 1.16432e-10
max/min FaceSonicCourant: 0.223507/0.0561932
max/min kappa: 1/1
ExecutionTime = 0.37 s  ClockTime = 0 s

Mean and max Acoustic Courant Numbers = 0.0474381 0.111754
Courant Number max : 0.012402 velocity magnitude: 18.913
Time = 5.5e-05

diagonal:  Solving for rho, Initial residual = 0, Final residual = 0, No Iterations 0
rho max/min : 0.83124 / 0.710718
DILUPBiCG:  Solving for h, Initial residual = 0.0116292, Final residual = 5.284e-10, No Iterations 2
max/min T: 295.391/282.73
DILUPBiCG:  Solving for p, Initial residual = 0.00125288, Final residual = 1.42635e-10, No Iterations 2
max(U): (18.789 0.074945 2.07301e-32)
max/min p: 68970/58970
diagonal:  Solving for rho, Initial residual = 0, Final residual = 0, No Iterations 0
rho max/min : 0.83124 / 0.710718
time step continuity errors : sum local = 1.97584e-11, global = 3.89243e-12, cumulative = 1.20325e-10
max/min FaceSonicCourant: 0.223507/0.0561888
max/min kappa: 1/1
ExecutionTime = 0.37 s  ClockTime = 0 s

Mean and max Acoustic Courant Numbers = 0.0474426 0.111754
Courant Number max : 0.0124033 velocity magnitude: 18.915
Time = 5.6e-05

diagonal:  Solving for rho, Initial residual = 0, Final residual = 0, No Iterations 0
rho max/min : 0.83124 / 0.710718
DILUPBiCG:  Solving for h, Initial residual = 0.0114179, Final residual = 4.73834e-10, No Iterations 2
max/min T: 295.411/282.691
DILUPBiCG:  Solving for p, Initial residual = 0.00125792, Final residual = 1.36827e-10, No Iterations 2
max(U): (18.7974 0.0748811 2.073e-32)
max/min p: 68970/58970
diagonal:  Solving for rho, Initial residual = 0, Final residual = 0, No Iterations 0
rho max/min : 0.83124 / 0.710718
time step continuity errors : sum local = 1.89077e-11, global = 2.22496e-12, cumulative = 1.2255e-10
max/min FaceSonicCourant: 0.223507/0.0561849
max/min kappa: 1/1
ExecutionTime = 0.38 s  ClockTime = 0 s

Mean and max Acoustic Courant Numbers = 0.0474472 0.111754
Courant Number max : 0.0124027 velocity magnitude: 18.9141
Time = 5.7e-05

diagonal:  Solving for rho, Initial residual = 0, Final residual = 0, No Iterations 0
rho max/min : 0.83124 / 0.710718
DILUPBiCG:  Solving for h, Initial residual = 0.0112448, Final residual = 4.24069e-10, No Iterations 2
max/min T: 295.428/282.656
DILUPBiCG:  Solving for p, Initial residual = 0.00126271, Final residual = 1.33083e-10, No Iterations 2
max(U): (18.8026 0.0744225 2.07299e-32)
max/min p: 68970/58970
diagonal:  Solving for rho, Initial residual = 0, Final residual = 0, No Iterations 0
rho max/min : 0.83124 / 0.710718
time step continuity errors : sum local = 1.83464e-11, global = 2.27964e-13, cumulative = 1.22778e-10
max/min FaceSonicCourant: 0.223507/0.0561814
max/min kappa: 1/1
ExecutionTime = 0.38 s  ClockTime = 0 s

Mean and max Acoustic Courant Numbers = 0.0474517 0.111754
Courant Number max : 0.0124009 velocity magnitude: 18.9114
Time = 5.8e-05

diagonal:  Solving for rho, Initial residual = 0, Final residual = 0, No Iterations 0
rho max/min : 0.83124 / 0.710718
DILUPBiCG:  Solving for h, Initial residual = 0.0110656, Final residual = 3.94191e-10, No Iterations 2
max/min T: 295.442/282.625
DILUPBiCG:  Solving for p, Initial residual = 0.00126674, Final residual = 1.4082e-10, No Iterations 2
max(U): (18.8048 0.0736254 2.07298e-32)
max/min p: 68970/58970
diagonal:  Solving for rho, Initial residual = 0, Final residual = 0, No Iterations 0
rho max/min : 0.83124 / 0.710718
time step continuity errors : sum local = 1.93678e-11, global = 1.49249e-12, cumulative = 1.2427e-10
max/min FaceSonicCourant: 0.223507/0.0561784
max/min kappa: 1/1
ExecutionTime = 0.39 s  ClockTime = 0 s

Mean and max Acoustic Courant Numbers = 0.0474562 0.111754
Courant Number max : 0.0123994 velocity magnitude: 18.9091
Time = 5.9e-05

diagonal:  Solving for rho, Initial residual = 0, Final residual = 0, No Iterations 0
rho max/min : 0.83124 / 0.710718
DILUPBiCG:  Solving for h, Initial residual = 0.0108766, Final residual = 3.65421e-10, No Iterations 2
max/min T: 295.453/282.598
DILUPBiCG:  Solving for p, Initial residual = 0.00127013, Final residual = 1.36995e-10, No Iterations 2
max(U): (18.8046 0.074073 2.09523e-32)
max/min p: 68970/58970
diagonal:  Solving for rho, Initial residual = 0, Final residual = 0, No Iterations 0
rho max/min : 0.83124 / 0.710718
time step continuity errors : sum local = 1.87975e-11, global = 2.69093e-12, cumulative = 1.26961e-10
max/min FaceSonicCourant: 0.223507/0.0561757
max/min kappa: 1/1
ExecutionTime = 0.4 s  ClockTime = 0 s

Mean and max Acoustic Courant Numbers = 0.0474608 0.111754
Courant Number max : 0.0123982 velocity magnitude: 18.9073
Time = 6e-05

diagonal:  Solving for rho, Initial residual = 0, Final residual = 0, No Iterations 0
rho max/min : 0.83124 / 0.710718
DILUPBiCG:  Solving for h, Initial residual = 0.0106802, Final residual = 3.51241e-10, No Iterations 2
max/min T: 295.462/282.575
DILUPBiCG:  Solving for p, Initial residual = 0.00127292, Final residual = 1.38413e-10, No Iterations 2
max(U): (18.8023 0.0763949 2.07293e-32)
max/min p: 68970/58970
diagonal:  Solving for rho, Initial residual = 0, Final residual = 0, No Iterations 0
rho max/min : 0.83124 / 0.710718
time step continuity errors : sum local = 1.8947e-11, global = 3.47931e-12, cumulative = 1.3044e-10
max/min FaceSonicCourant: 0.223507/0.0561734
max/min kappa: 1/1
ExecutionTime = 0.4 s  ClockTime = 1 s

Mean and max Acoustic Courant Numbers = 0.0474653 0.111754
Courant Number max : 0.0123973 velocity magnitude: 18.9059
Time = 6.1e-05

diagonal:  Solving for rho, Initial residual = 0, Final residual = 0, No Iterations 0
rho max/min : 0.83124 / 0.710718
DILUPBiCG:  Solving for h, Initial residual = 0.0104802, Final residual = 3.85111e-10, No Iterations 2
max/min T: 295.467/282.554
DILUPBiCG:  Solving for p, Initial residual = 0.00127528, Final residual = 1.4359e-10, No Iterations 2
max(U): (18.7982 0.0781668 2.07289e-32)
max/min p: 68970/58970
diagonal:  Solving for rho, Initial residual = 0, Final residual = 0, No Iterations 0
rho max/min : 0.83124 / 0.710718
time step continuity errors : sum local = 1.96087e-11, global = 4.64315e-12, cumulative = 1.35083e-10
max/min FaceSonicCourant: 0.223507/0.0561713
max/min kappa: 1/1
ExecutionTime = 0.41 s  ClockTime = 1 s

Mean and max Acoustic Courant Numbers = 0.0474699 0.111754
Courant Number max : 0.0123966 velocity magnitude: 18.9048
Time = 6.2e-05

diagonal:  Solving for rho, Initial residual = 0, Final residual = 0, No Iterations 0
rho max/min : 0.83124 / 0.710718
DILUPBiCG:  Solving for h, Initial residual = 0.0102798, Final residual = 3.84835e-10, No Iterations 2
max/min T: 295.471/282.536
DILUPBiCG:  Solving for p, Initial residual = 0.00127728, Final residual = 1.5092e-10, No Iterations 2
max(U): (18.7925 0.0793739 2.07285e-32)
max/min p: 68970/58970
diagonal:  Solving for rho, Initial residual = 0, Final residual = 0, No Iterations 0
rho max/min : 0.83124 / 0.710718
time step continuity errors : sum local = 2.056e-11, global = 6.00598e-12, cumulative = 1.41089e-10
max/min FaceSonicCourant: 0.223507/0.0561695
max/min kappa: 1/1
ExecutionTime = 0.41 s  ClockTime = 1 s

Mean and max Acoustic Courant Numbers = 0.0474744 0.111754
Courant Number max : 0.0123959 velocity magnitude: 18.9037
Time = 6.3e-05

diagonal:  Solving for rho, Initial residual = 0, Final residual = 0, No Iterations 0
rho max/min : 0.83124 / 0.710718
DILUPBiCG:  Solving for h, Initial residual = 0.0100815, Final residual = 3.6334e-10, No Iterations 2
max/min T: 295.491/282.52
DILUPBiCG:  Solving for p, Initial residual = 0.00127901, Final residual = 1.48047e-10, No Iterations 2
max(U): (18.7851 0.0800534 2.07278e-32)
max/min p: 68970/58970
diagonal:  Solving for rho, Initial residual = 0, Final residual = 0, No Iterations 0
rho max/min : 0.83124 / 0.710718
time step continuity errors : sum local = 2.01197e-11, global = 4.21614e-12, cumulative = 1.45306e-10
max/min FaceSonicCourant: 0.223507/0.0561679
max/min kappa: 1/1
ExecutionTime = 0.42 s  ClockTime = 1 s

Mean and max Acoustic Courant Numbers = 0.047479 0.111754
Courant Number max : 0.0123951 velocity magnitude: 18.9025
Time = 6.4e-05

diagonal:  Solving for rho, Initial residual = 0, Final residual = 0, No Iterations 0
rho max/min : 0.83124 / 0.710718
DILUPBiCG:  Solving for h, Initial residual = 0.00989488, Final residual = 3.46689e-10, No Iterations 2
max/min T: 295.516/282.506
DILUPBiCG:  Solving for p, Initial residual = 0.00128039, Final residual = 1.48448e-10, No Iterations 2
max(U): (18.7767 0.0802516 2.0727e-32)
max/min p: 68970/58970
diagonal:  Solving for rho, Initial residual = 0, Final residual = 0, No Iterations 0
rho max/min : 0.83124 / 0.710718
time step continuity errors : sum local = 2.01248e-11, global = 4.53348e-12, cumulative = 1.49839e-10
max/min FaceSonicCourant: 0.223507/0.0561665
max/min kappa: 1/1
ExecutionTime = 0.42 s  ClockTime = 1 s

Mean and max Acoustic Courant Numbers = 0.0474836 0.111754
Courant Number max : 0.0123924 velocity magnitude: 18.8984
Time = 6.5e-05

diagonal:  Solving for rho, Initial residual = 0, Final residual = 0, No Iterations 0
rho max/min : 0.83124 / 0.710718
DILUPBiCG:  Solving for h, Initial residual = 0.0097181, Final residual = 3.13499e-10, No Iterations 2
max/min T: 295.537/282.495
DILUPBiCG:  Solving for p, Initial residual = 0.00128138, Final residual = 1.44743e-10, No Iterations 2
max(U): (18.7664 0.0800201 2.07258e-32)
max/min p: 68970/58970
diagonal:  Solving for rho, Initial residual = 0, Final residual = 0, No Iterations 0
rho max/min : 0.83124 / 0.710718
time step continuity errors : sum local = 1.95742e-11, global = 3.85712e-13, cumulative = 1.50225e-10
max/min FaceSonicCourant: 0.223507/0.0561653
max/min kappa: 1/1
ExecutionTime = 0.43 s  ClockTime = 1 s

Mean and max Acoustic Courant Numbers = 0.0474881 0.111754
Courant Number max : 0.0123914 velocity magnitude: 18.8968
Time = 6.6e-05

diagonal:  Solving for rho, Initial residual = 0, Final residual = 0, No Iterations 0
rho max/min : 0.83124 / 0.710718
DILUPBiCG:  Solving for h, Initial residual = 0.00954787, Final residual = 2.94691e-10, No Iterations 2
max/min T: 295.555/282.485
DILUPBiCG:  Solving for p, Initial residual = 0.00128177, Final residual = 1.42045e-10, No Iterations 2
max(U): (18.7564 0.0794095 2.07243e-32)
max/min p: 68970/58970
diagonal:  Solving for rho, Initial residual = 0, Final residual = 0, No Iterations 0
rho max/min : 0.83124 / 0.710718
time step continuity errors : sum local = 1.91618e-11, global = -1.31802e-12, cumulative = 1.48907e-10
max/min FaceSonicCourant: 0.223507/0.0561643
max/min kappa: 1/1
ExecutionTime = 0.43 s  ClockTime = 1 s

Mean and max Acoustic Courant Numbers = 0.0474927 0.111754
Courant Number max : 0.0123868 velocity magnitude: 18.8899
Time = 6.7e-05

diagonal:  Solving for rho, Initial residual = 0, Final residual = 0, No Iterations 0
rho max/min : 0.83124 / 0.710718
DILUPBiCG:  Solving for h, Initial residual = 0.00938076, Final residual = 2.60221e-10, No Iterations 2
max/min T: 295.571/282.477
DILUPBiCG:  Solving for p, Initial residual = 0.00128267, Final residual = 1.38981e-10, No Iterations 2
max(U): (18.7476 0.0784707 2.07223e-32)
max/min p: 68970/58970
diagonal:  Solving for rho, Initial residual = 0, Final residual = 0, No Iterations 0
rho max/min : 0.83124 / 0.710718
time step continuity errors : sum local = 1.87018e-11, global = 2.54168e-12, cumulative = 1.51448e-10
max/min FaceSonicCourant: 0.223507/0.0561634
max/min kappa: 1/1
ExecutionTime = 0.44 s  ClockTime = 1 s

Mean and max Acoustic Courant Numbers = 0.0474972 0.111754
Courant Number max : 0.0123831 velocity magnitude: 18.8842
Time = 6.8e-05

diagonal:  Solving for rho, Initial residual = 0, Final residual = 0, No Iterations 0
rho max/min : 0.83124 / 0.710718
DILUPBiCG:  Solving for h, Initial residual = 0.00921973, Final residual = 2.39867e-10, No Iterations 2
max/min T: 295.584/282.47
DILUPBiCG:  Solving for p, Initial residual = 0.00128273, Final residual = 1.36588e-10, No Iterations 2
max(U): (18.7387 0.079071 2.07196e-32)
max/min p: 68970/58970
diagonal:  Solving for rho, Initial residual = 0, Final residual = 0, No Iterations 0
rho max/min : 0.83124 / 0.710718
time step continuity errors : sum local = 1.83345e-11, global = 2.96174e-12, cumulative = 1.5441e-10
max/min FaceSonicCourant: 0.223507/0.0561627
max/min kappa: 1/1
ExecutionTime = 0.44 s  ClockTime = 1 s

Mean and max Acoustic Courant Numbers = 0.0475018 0.111754
Courant Number max : 0.0123812 velocity magnitude: 18.8813
Time = 6.9e-05

diagonal:  Solving for rho, Initial residual = 0, Final residual = 0, No Iterations 0
rho max/min : 0.83124 / 0.710718
DILUPBiCG:  Solving for h, Initial residual = 0.00905179, Final residual = 2.39174e-10, No Iterations 2
max/min T: 295.594/282.465
DILUPBiCG:  Solving for p, Initial residual = 0.00128205, Final residual = 1.62594e-10, No Iterations 2
max(U): (18.7298 0.0811667 2.0716e-32)
max/min p: 68970/58970
diagonal:  Solving for rho, Initial residual = 0, Final residual = 0, No Iterations 0
rho max/min : 0.83124 / 0.710718
time step continuity errors : sum local = 2.17723e-11, global = 3.53751e-12, cumulative = 1.57948e-10
max/min FaceSonicCourant: 0.223507/0.0561622
max/min kappa: 1/1
ExecutionTime = 0.45 s  ClockTime = 1 s

Mean and max Acoustic Courant Numbers = 0.0475063 0.111754
Courant Number max : 0.0123798 velocity magnitude: 18.8791
Time = 7e-05

diagonal:  Solving for rho, Initial residual = 0, Final residual = 0, No Iterations 0
rho max/min : 0.83124 / 0.710718
DILUPBiCG:  Solving for h, Initial residual = 0.00889494, Final residual = 2.83925e-10, No Iterations 2
max/min T: 295.603/282.461
DILUPBiCG:  Solving for p, Initial residual = 0.00128172, Final residual = 1.44659e-10, No Iterations 2
max(U): (18.721 0.0826854 2.07113e-32)
max/min p: 68970/58970
diagonal:  Solving for rho, Initial residual = 0, Final residual = 0, No Iterations 0
rho max/min : 0.83124 / 0.710718
time step continuity errors : sum local = 1.93239e-11, global = 5.38502e-12, cumulative = 1.63333e-10
max/min FaceSonicCourant: 0.223507/0.0561618
max/min kappa: 1/1
ExecutionTime = 0.46 s  ClockTime = 1 s

Mean and max Acoustic Courant Numbers = 0.0475109 0.111754
Courant Number max : 0.0123786 velocity magnitude: 18.8773
Time = 7.1e-05

diagonal:  Solving for rho, Initial residual = 0, Final residual = 0, No Iterations 0
rho max/min : 0.83124 / 0.710718
DILUPBiCG:  Solving for h, Initial residual = 0.00874684, Final residual = 2.50638e-10, No Iterations 2
max/min T: 295.611/282.458
DILUPBiCG:  Solving for p, Initial residual = 0.00128204, Final residual = 1.33658e-10, No Iterations 2
max(U): (18.7124 0.0836634 2.07052e-32)
max/min p: 68970/58970
diagonal:  Solving for rho, Initial residual = 0, Final residual = 0, No Iterations 0
rho max/min : 0.83124 / 0.710718
time step continuity errors : sum local = 1.78109e-11, global = 4.50525e-12, cumulative = 1.67838e-10
max/min FaceSonicCourant: 0.223507/0.0561615
max/min kappa: 1/1
ExecutionTime = 0.46 s  ClockTime = 1 s

Mean and max Acoustic Courant Numbers = 0.0475154 0.111754
Courant Number max : 0.0123775 velocity magnitude: 18.8756
Time = 7.2e-05

diagonal:  Solving for rho, Initial residual = 0, Final residual = 0, No Iterations 0
rho max/min : 0.83124 / 0.710718
DILUPBiCG:  Solving for h, Initial residual = 0.00861157, Final residual = 2.36218e-10, No Iterations 2
max/min T: 295.617/282.457
DILUPBiCG:  Solving for p, Initial residual = 0.00128357, Final residual = 1.30159e-10, No Iterations 2
max(U): (18.7028 0.0841439 2.06973e-32)
max/min p: 68970/58970
diagonal:  Solving for rho, Initial residual = 0, Final residual = 0, No Iterations 0
rho max/min : 0.83124 / 0.710718
time step continuity errors : sum local = 1.7302e-11, global = 3.0285e-12, cumulative = 1.70866e-10
max/min FaceSonicCourant: 0.223507/0.0561614
max/min kappa: 1/1
ExecutionTime = 0.47 s  ClockTime = 1 s

Mean and max Acoustic Courant Numbers = 0.04752 0.111754
Courant Number max : 0.0123765 velocity magnitude: 18.8741
Time = 7.3e-05

diagonal:  Solving for rho, Initial residual = 0, Final residual = 0, No Iterations 0
rho max/min : 0.83124 / 0.710718
DILUPBiCG:  Solving for h, Initial residual = 0.00847961, Final residual = 2.55119e-10, No Iterations 2
max/min T: 295.621/282.456
DILUPBiCG:  Solving for p, Initial residual = 0.00128592, Final residual = 1.29834e-10, No Iterations 2
max(U): (18.6926 0.0841736 2.09477e-32)
max/min p: 68970/58970
diagonal:  Solving for rho, Initial residual = 0, Final residual = 0, No Iterations 0
rho max/min : 0.83124 / 0.710718
time step continuity errors : sum local = 1.7216e-11, global = 9.36584e-13, cumulative = 1.71803e-10
max/min FaceSonicCourant: 0.223507/0.0561613
max/min kappa: 1/1
ExecutionTime = 0.47 s  ClockTime = 1 s

Mean and max Acoustic Courant Numbers = 0.0475246 0.111754
Courant Number max : 0.0123755 velocity magnitude: 18.8727
Time = 7.4e-05

diagonal:  Solving for rho, Initial residual = 0, Final residual = 0, No Iterations 0
rho max/min : 0.83124 / 0.710718
DILUPBiCG:  Solving for h, Initial residual = 0.00835298, Final residual = 2.23145e-10, No Iterations 2
max/min T: 295.625/282.456
DILUPBiCG:  Solving for p, Initial residual = 0.00128973, Final residual = 1.27035e-10, No Iterations 2
max(U): (18.6822 0.0837992 2.07288e-32)
max/min p: 68970/58970
diagonal:  Solving for rho, Initial residual = 0, Final residual = 0, No Iterations 0
rho max/min : 0.83124 / 0.710718
time step continuity errors : sum local = 1.68027e-11, global = -9.003e-13, cumulative = 1.70903e-10
max/min FaceSonicCourant: 0.223507/0.0561613
max/min kappa: 1/1
ExecutionTime = 0.48 s  ClockTime = 1 s

Mean and max Acoustic Courant Numbers = 0.0475291 0.111754
Courant Number max : 0.0123757 velocity magnitude: 18.873
Time = 7.5e-05

diagonal:  Solving for rho, Initial residual = 0, Final residual = 0, No Iterations 0
rho max/min : 0.83124 / 0.710718
DILUPBiCG:  Solving for h, Initial residual = 0.00823485, Final residual = 2.11746e-10, No Iterations 2
max/min T: 295.627/282.457
DILUPBiCG:  Solving for p, Initial residual = 0.001294, Final residual = 1.25261e-10, No Iterations 2
max(U): (18.672 0.0830647 2.07287e-32)
max/min p: 68970/58970
diagonal:  Solving for rho, Initial residual = 0, Final residual = 0, No Iterations 0
rho max/min : 0.83124 / 0.710718
time step continuity errors : sum local = 1.65265e-11, global = -8.46476e-13, cumulative = 1.70056e-10
max/min FaceSonicCourant: 0.223507/0.0561614
max/min kappa: 1/1
ExecutionTime = 0.48 s  ClockTime = 1 s

Mean and max Acoustic Courant Numbers = 0.0475337 0.111754
Courant Number max : 0.01238 velocity magnitude: 18.8795
Time = 7.6e-05

diagonal:  Solving for rho, Initial residual = 0, Final residual = 0, No Iterations 0
rho max/min : 0.83124 / 0.710718
DILUPBiCG:  Solving for h, Initial residual = 0.00811903, Final residual = 1.83191e-10, No Iterations 2
max/min T: 295.629/282.458
DILUPBiCG:  Solving for p, Initial residual = 0.00129858, Final residual = 1.30808e-10, No Iterations 2
max(U): (18.6623 0.0820147 2.0651e-32)
max/min p: 68970/58970
diagonal:  Solving for rho, Initial residual = 0, Final residual = 0, No Iterations 0
rho max/min : 0.83124 / 0.710718
time step continuity errors : sum local = 1.72146e-11, global = 1.47811e-12, cumulative = 1.71534e-10
max/min FaceSonicCourant: 0.223507/0.0561616
max/min kappa: 1/1
ExecutionTime = 0.49 s  ClockTime = 1 s

Mean and max Acoustic Courant Numbers = 0.0475383 0.111754
Courant Number max : 0.0123835 velocity magnitude: 18.8849
Time = 7.7e-05

diagonal:  Solving for rho, Initial residual = 0, Final residual = 0, No Iterations 0
rho max/min : 0.83124 / 0.710718
DILUPBiCG:  Solving for h, Initial residual = 0.00800558, Final residual = 1.9699e-10, No Iterations 2
max/min T: 295.63/282.457
DILUPBiCG:  Solving for p, Initial residual = 0.00130317, Final residual = 1.53289e-10, No Iterations 2
max(U): (18.6712 0.083131 2.06189e-32)
max/min p: 68970/58970
diagonal:  Solving for rho, Initial residual = 0, Final residual = 0, No Iterations 0
rho max/min : 0.83124 / 0.710718
time step continuity errors : sum local = 2.01219e-11, global = 1.82049e-12, cumulative = 1.73355e-10
max/min FaceSonicCourant: 0.223507/0.0561614
max/min kappa: 1/1
ExecutionTime = 0.49 s  ClockTime = 1 s

Mean and max Acoustic Courant Numbers = 0.0475428 0.111754
Courant Number max : 0.0123862 velocity magnitude: 18.889
Time = 7.8e-05

diagonal:  Solving for rho, Initial residual = 0, Final residual = 0, No Iterations 0
rho max/min : 0.83124 / 0.710718
DILUPBiCG:  Solving for h, Initial residual = 0.00789472, Final residual = 2.05326e-10, No Iterations 2
max/min T: 295.63/282.451
DILUPBiCG:  Solving for p, Initial residual = 0.00130823, Final residual = 1.45056e-10, No Iterations 2
max(U): (18.679 0.0850016 2.05937e-32)
max/min p: 68970/58970
diagonal:  Solving for rho, Initial residual = 0, Final residual = 0, No Iterations 0
rho max/min : 0.83124 / 0.710718
time step continuity errors : sum local = 1.89925e-11, global = 3.85116e-12, cumulative = 1.77206e-10
max/min FaceSonicCourant: 0.223507/0.0561608
max/min kappa: 1/1
ExecutionTime = 0.5 s  ClockTime = 1 s

Mean and max Acoustic Courant Numbers = 0.0475474 0.111754
Courant Number max : 0.012388 velocity magnitude: 18.8917
Time = 7.9e-05

diagonal:  Solving for rho, Initial residual = 0, Final residual = 0, No Iterations 0
rho max/min : 0.83124 / 0.710718
DILUPBiCG:  Solving for h, Initial residual = 0.00778531, Final residual = 2.28553e-10, No Iterations 2
max/min T: 295.629/282.445
DILUPBiCG:  Solving for p, Initial residual = 0.0013128, Final residual = 1.35054e-10, No Iterations 2
max(U): (18.685 0.0863226 2.05652e-32)
max/min p: 68970/58970
diagonal:  Solving for rho, Initial residual = 0, Final residual = 0, No Iterations 0
rho max/min : 0.83124 / 0.710718
time step continuity errors : sum local = 1.76383e-11, global = 4.13236e-12, cumulative = 1.81338e-10
max/min FaceSonicCourant: 0.223507/0.0561602
max/min kappa: 1/1
ExecutionTime = 0.51 s  ClockTime = 1 s

Mean and max Acoustic Courant Numbers = 0.0475519 0.111754
Courant Number max : 0.0123895 velocity magnitude: 18.8939
Time = 8e-05

diagonal:  Solving for rho, Initial residual = 0, Final residual = 0, No Iterations 0
rho max/min : 0.83124 / 0.710718
DILUPBiCG:  Solving for h, Initial residual = 0.00767924, Final residual = 2.40881e-10, No Iterations 2
max/min T: 295.634/282.441
DILUPBiCG:  Solving for p, Initial residual = 0.00131679, Final residual = 1.29521e-10, No Iterations 2
max(U): (18.6894 0.0871309 2.05338e-32)
max/min p: 68970/58970
diagonal:  Solving for rho, Initial residual = 0, Final residual = 0, No Iterations 0
rho max/min : 0.83124 / 0.710718
time step continuity errors : sum local = 1.68737e-11, global = 3.75388e-12, cumulative = 1.85092e-10
max/min FaceSonicCourant: 0.223507/0.0561598
max/min kappa: 1/1
ExecutionTime = 0.51 s  ClockTime = 1 s

Mean and max Acoustic Courant Numbers = 0.0475565 0.111754
Courant Number max : 0.0123903 velocity magnitude: 18.8952
Time = 8.1e-05

diagonal:  Solving for rho, Initial residual = 0, Final residual = 0, No Iterations 0
rho max/min : 0.83124 / 0.710718
DILUPBiCG:  Solving for h, Initial residual = 0.00757841, Final residual = 2.2458e-10, No Iterations 2
max/min T: 295.642/282.437
DILUPBiCG:  Solving for p, Initial residual = 0.00132046, Final residual = 1.27427e-10, No Iterations 2
max(U): (18.6924 0.0874678 2.05e-32)
max/min p: 68970/58970
diagonal:  Solving for rho, Initial residual = 0, Final residual = 0, No Iterations 0
rho max/min : 0.83124 / 0.710718
time step continuity errors : sum local = 1.65595e-11, global = 1.72183e-12, cumulative = 1.86814e-10
max/min FaceSonicCourant: 0.223507/0.0561594
max/min kappa: 1/1
ExecutionTime = 0.52 s  ClockTime = 1 s

Mean and max Acoustic Courant Numbers = 0.047561 0.111754
Courant Number max : 0.0123906 velocity magnitude: 18.8956
Time = 8.2e-05

diagonal:  Solving for rho, Initial residual = 0, Final residual = 0, No Iterations 0
rho max/min : 0.83124 / 0.710718
DILUPBiCG:  Solving for h, Initial residual = 0.00747876, Final residual = 1.91916e-10, No Iterations 2
max/min T: 295.649/282.434
DILUPBiCG:  Solving for p, Initial residual = 0.00132403, Final residual = 1.22416e-10, No Iterations 2
max(U): (18.6942 0.0873752 2.1137e-32)
max/min p: 68970/58970
diagonal:  Solving for rho, Initial residual = 0, Final residual = 0, No Iterations 0
rho max/min : 0.83124 / 0.710718
time step continuity errors : sum local = 1.58684e-11, global = 7.04538e-13, cumulative = 1.87519e-10
max/min FaceSonicCourant: 0.223507/0.0561591
max/min kappa: 1/1
ExecutionTime = 0.52 s  ClockTime = 1 s

Mean and max Acoustic Courant Numbers = 0.0475656 0.111754
Courant Number max : 0.0123902 velocity magnitude: 18.895
Time = 8.3e-05

diagonal:  Solving for rho, Initial residual = 0, Final residual = 0, No Iterations 0
rho max/min : 0.83124 / 0.710718
DILUPBiCG:  Solving for h, Initial residual = 0.00738001, Final residual = 1.80211e-10, No Iterations 2
max/min T: 295.655/282.432
DILUPBiCG:  Solving for p, Initial residual = 0.00132737, Final residual = 1.21458e-10, No Iterations 2
max(U): (18.6949 0.086895 2.10231e-32)
max/min p: 68970/58970
diagonal:  Solving for rho, Initial residual = 0, Final residual = 0, No Iterations 0
rho max/min : 0.83124 / 0.710718
time step continuity errors : sum local = 1.57045e-11, global = -4.80367e-13, cumulative = 1.87038e-10
max/min FaceSonicCourant: 0.223507/0.0561589
max/min kappa: 1/1
ExecutionTime = 0.53 s  ClockTime = 1 s

Mean and max Acoustic Courant Numbers = 0.0475702 0.111754
Courant Number max : 0.0123892 velocity magnitude: 18.8935
Time = 8.4e-05

diagonal:  Solving for rho, Initial residual = 0, Final residual = 0, No Iterations 0
rho max/min : 0.83124 / 0.710718
DILUPBiCG:  Solving for h, Initial residual = 0.00728258, Final residual = 1.74441e-10, No Iterations 2
max/min T: 295.66/282.43
DILUPBiCG:  Solving for p, Initial residual = 0.00133062, Final residual = 1.54388e-10, No Iterations 2
max(U): (18.6947 0.0860662 2.09578e-32)
max/min p: 68970/58970
diagonal:  Solving for rho, Initial residual = 0, Final residual = 0, No Iterations 0
rho max/min : 0.83124 / 0.710718
time step continuity errors : sum local = 1.99115e-11, global = -1.38782e-12, cumulative = 1.8565e-10
max/min FaceSonicCourant: 0.223507/0.0561588
max/min kappa: 1/1
ExecutionTime = 0.53 s  ClockTime = 1 s

Mean and max Acoustic Courant Numbers = 0.0475747 0.111754
Courant Number max : 0.0123877 velocity magnitude: 18.8912
Time = 8.5e-05

diagonal:  Solving for rho, Initial residual = 0, Final residual = 0, No Iterations 0
rho max/min : 0.83124 / 0.710718
DILUPBiCG:  Solving for h, Initial residual = 0.00718779, Final residual = 1.61256e-10, No Iterations 2
max/min T: 295.664/282.429
DILUPBiCG:  Solving for p, Initial residual = 0.00133381, Final residual = 1.48276e-10, No Iterations 2
max(U): (18.6935 0.0849221 2.09266e-32)
max/min p: 68970/58970
diagonal:  Solving for rho, Initial residual = 0, Final residual = 0, No Iterations 0
rho max/min : 0.83124 / 0.710718
time step continuity errors : sum local = 1.90741e-11, global = 2.09544e-13, cumulative = 1.8586e-10
max/min FaceSonicCourant: 0.223507/0.0561587
max/min kappa: 1/1
ExecutionTime = 0.54 s  ClockTime = 1 s

Mean and max Acoustic Courant Numbers = 0.0475793 0.111754
Courant Number max : 0.0123857 velocity magnitude: 18.8882
Time = 8.6e-05

diagonal:  Solving for rho, Initial residual = 0, Final residual = 0, No Iterations 0
rho max/min : 0.83124 / 0.710718
DILUPBiCG:  Solving for h, Initial residual = 0.00709531, Final residual = 1.57156e-10, No Iterations 2
max/min T: 295.668/282.427
DILUPBiCG:  Solving for p, Initial residual = 0.00133682, Final residual = 1.4502e-10, No Iterations 2
max(U): (18.6917 0.0865041 2.0843e-32)
max/min p: 68970/58970
diagonal:  Solving for rho, Initial residual = 0, Final residual = 0, No Iterations 0
rho max/min : 0.83124 / 0.710718
time step continuity errors : sum local = 1.86071e-11, global = 2.04808e-12, cumulative = 1.87908e-10
max/min FaceSonicCourant: 0.223507/0.0561586
max/min kappa: 1/1
ExecutionTime = 0.54 s  ClockTime = 1 s

Mean and max Acoustic Courant Numbers = 0.0475838 0.111754
Courant Number max : 0.0123833 velocity magnitude: 18.8845
Time = 8.7e-05

diagonal:  Solving for rho, Initial residual = 0, Final residual = 0, No Iterations 0
rho max/min : 0.83124 / 0.710718
DILUPBiCG:  Solving for h, Initial residual = 0.00700398, Final residual = 1.90193e-10, No Iterations 2
max/min T: 295.671/282.426
DILUPBiCG:  Solving for p, Initial residual = 0.00133946, Final residual = 1.44079e-10, No Iterations 2
max(U): (18.6892 0.0881873 2.07577e-32)
max/min p: 68970/58970
diagonal:  Solving for rho, Initial residual = 0, Final residual = 0, No Iterations 0
rho max/min : 0.83124 / 0.710718
time step continuity errors : sum local = 1.84384e-11, global = 3.92555e-12, cumulative = 1.91834e-10
max/min FaceSonicCourant: 0.223507/0.0561585
max/min kappa: 1/1
ExecutionTime = 0.55 s  ClockTime = 1 s

Mean and max Acoustic Courant Numbers = 0.0475884 0.111754
Courant Number max : 0.0123807 velocity magnitude: 18.8806
Time = 8.8e-05

diagonal:  Solving for rho, Initial residual = 0, Final residual = 0, No Iterations 0
rho max/min : 0.83124 / 0.710718
DILUPBiCG:  Solving for h, Initial residual = 0.00691284, Final residual = 2.00396e-10, No Iterations 2
max/min T: 295.673/282.425
DILUPBiCG:  Solving for p, Initial residual = 0.00134191, Final residual = 1.3249e-10, No Iterations 2
max(U): (18.686 0.0893452 2.07293e-32)
max/min p: 68970/58970
diagonal:  Solving for rho, Initial residual = 0, Final residual = 0, No Iterations 0
rho max/min : 0.83124 / 0.710718
time step continuity errors : sum local = 1.6911e-11, global = 3.87955e-12, cumulative = 1.95713e-10
max/min FaceSonicCourant: 0.223507/0.0561584
max/min kappa: 1/1
ExecutionTime = 0.55 s  ClockTime = 1 s

Mean and max Acoustic Courant Numbers = 0.0475929 0.111754
Courant Number max : 0.0123787 velocity magnitude: 18.8775
Time = 8.9e-05

diagonal:  Solving for rho, Initial residual = 0, Final residual = 0, No Iterations 0
rho max/min : 0.83124 / 0.710718
DILUPBiCG:  Solving for h, Initial residual = 0.00682276, Final residual = 1.82435e-10, No Iterations 2
max/min T: 295.675/282.424
DILUPBiCG:  Solving for p, Initial residual = 0.00134432, Final residual = 1.32151e-10, No Iterations 2
max(U): (18.6822 0.0900103 2.07295e-32)
max/min p: 68970/58970
diagonal:  Solving for rho, Initial residual = 0, Final residual = 0, No Iterations 0
rho max/min : 0.83124 / 0.710718
time step continuity errors : sum local = 1.68235e-11, global = 3.62519e-12, cumulative = 1.99338e-10
max/min FaceSonicCourant: 0.223507/0.0561583
max/min kappa: 1/1
ExecutionTime = 0.56 s  ClockTime = 1 s

Mean and max Acoustic Courant Numbers = 0.0475975 0.111754
Courant Number max : 0.0123727 velocity magnitude: 18.8684
Time = 9e-05

diagonal:  Solving for rho, Initial residual = 0, Final residual = 0, No Iterations 0
[...]

diagonal:  Solving for rho, Initial residual = 0, Final residual = 0, No Iterations 0
rho max/min : 0.83124 / 0.710718
DILUPBiCG:  Solving for h, Initial residual = 0.00246742, Final residual = 2.84772e-11, No Iterations 2
max/min T: 295.615/282.485
DILUPBiCG:  Solving for p, Initial residual = 0.00209425, Final residual = 1.67718e-10, No Iterations 2
max(U): (18.6682 0.138802 2.0819e-32)
max/min p: 68970/58970
diagonal:  Solving for rho, Initial residual = 0, Final residual = 0, No Iterations 0
rho max/min : 0.83124 / 0.710718
time step continuity errors : sum local = 1.36495e-11, global = 1.71283e-12, cumulative = 5.08077e-10
max/min FaceSonicCourant: 0.223507/0.0561641
max/min kappa: 1/1
ExecutionTime = 1.41 s  ClockTime = 2 s

Mean and max Acoustic Courant Numbers = 0.0482346 0.111754
Courant Number max : 0.0123021 velocity magnitude: 18.7607
Time = 0.000229

diagonal:  Solving for rho, Initial residual = 0, Final residual = 0, No Iterations 0
rho max/min : 0.83124 / 0.710718
DILUPBiCG:  Solving for h, Initial residual = 0.00245644, Final residual = 2.47947e-11, No Iterations 2
max/min T: 295.615/282.485
DILUPBiCG:  Solving for p, Initial residual = 0.00210292, Final residual = 1.91799e-10, No Iterations 2
max(U): (18.669 0.141144 2.08188e-32)
max/min p: 68970/58970
diagonal:  Solving for rho, Initial residual = 0, Final residual = 0, No Iterations 0
rho max/min : 0.83124 / 0.710718
time step continuity errors : sum local = 1.55461e-11, global = 1.94286e-12, cumulative = 5.1002e-10
max/min FaceSonicCourant: 0.223507/0.0561642
max/min kappa: 1/1
ExecutionTime = 1.42 s  ClockTime = 2 s

Mean and max Acoustic Courant Numbers = 0.0482392 0.111754
Courant Number max : 0.0123019 velocity magnitude: 18.7603
Time = 0.00023

diagonal:  Solving for rho, Initial residual = 0, Final residual = 0, No Iterations 0
rho max/min : 0.83124 / 0.710718
DILUPBiCG:  Solving for h, Initial residual = 0.00244551, Final residual = 2.68624e-11, No Iterations 2
max/min T: 295.615/282.485
DILUPBiCG:  Solving for p, Initial residual = 0.00211169, Final residual = 1.67789e-10, No Iterations 2
max(U): (18.6708 0.142944 2.08179e-32)
max/min p: 68970/58970
diagonal:  Solving for rho, Initial residual = 0, Final residual = 0, No Iterations 0
rho max/min : 0.83124 / 0.710718
time step continuity errors : sum local = 1.35446e-11, global = 9.24679e-13, cumulative = 5.10944e-10
max/min FaceSonicCourant: 0.223507/0.0561642
max/min kappa: 1/1
ExecutionTime = 1.42 s  ClockTime = 2 s

Mean and max Acoustic Courant Numbers = 0.0482438 0.111754
Courant Number max : 0.0123016 velocity magnitude: 18.76
Time = 0.000231

diagonal:  Solving for rho, Initial residual = 0, Final residual = 0, No Iterations 0
rho max/min : 0.83124 / 0.710718
DILUPBiCG:  Solving for h, Initial residual = 0.00243468, Final residual = 2.97736e-11, No Iterations 2
max/min T: 295.614/282.486
DILUPBiCG:  Solving for p, Initial residual = 0.00212058, Final residual = 1.45642e-10, No Iterations 2
max(U): (18.6738 0.144213 2.08161e-32)
max/min p: 68970/58970
diagonal:  Solving for rho, Initial residual = 0, Final residual = 0, No Iterations 0
rho max/min : 0.83124 / 0.710718
time step continuity errors : sum local = 1.17086e-11, global = -4.68224e-13, cumulative = 5.10476e-10
max/min FaceSonicCourant: 0.223507/0.0561643
max/min kappa: 1/1
ExecutionTime = 1.43 s  ClockTime = 2 s

Mean and max Acoustic Courant Numbers = 0.0482484 0.111754
Courant Number max : 0.0123014 velocity magnitude: 18.7597
Time = 0.000232

diagonal:  Solving for rho, Initial residual = 0, Final residual = 0, No Iterations 0
rho max/min : 0.83124 / 0.710718
DILUPBiCG:  Solving for h, Initial residual = 0.00242395, Final residual = 3.26284e-11, No Iterations 2
max/min T: 295.614/282.486
DILUPBiCG:  Solving for p, Initial residual = 0.00212955, Final residual = 1.5266e-10, No Iterations 2
max(U): (18.6774 0.144966 2.08134e-32)
max/min p: 68970/58970
diagonal:  Solving for rho, Initial residual = 0, Final residual = 0, No Iterations 0
rho max/min : 0.83124 / 0.710718
time step continuity errors : sum local = 1.22222e-11, global = -2.84072e-13, cumulative = 5.10192e-10
max/min FaceSonicCourant: 0.223507/0.0561643
max/min kappa: 1/1
ExecutionTime = 1.44 s  ClockTime = 2 s

Mean and max Acoustic Courant Numbers = 0.048253 0.111754
Courant Number max : 0.0123012 velocity magnitude: 18.7594
Time = 0.000233

diagonal:  Solving for rho, Initial residual = 0, Final residual = 0, No Iterations 0
rho max/min : 0.83124 / 0.710718
DILUPBiCG:  Solving for h, Initial residual = 0.00241334, Final residual = 3.55416e-11, No Iterations 2
max/min T: 295.614/282.487
DILUPBiCG:  Solving for p, Initial residual = 0.00213864, Final residual = 1.59518e-10, No Iterations 2
max(U): (18.6808 0.145225 2.08098e-32)
max/min p: 68970/58970
diagonal:  Solving for rho, Initial residual = 0, Final residual = 0, No Iterations 0
rho max/min : 0.83124 / 0.710718
time step continuity errors : sum local = 1.27182e-11, global = 1.09944e-13, cumulative = 5.10302e-10
max/min FaceSonicCourant: 0.223507/0.0561643
max/min kappa: 1/1
ExecutionTime = 1.44 s  ClockTime = 2 s

Mean and max Acoustic Courant Numbers = 0.0482576 0.111754
Courant Number max : 0.0123011 velocity magnitude: 18.7592
Time = 0.000234

diagonal:  Solving for rho, Initial residual = 0, Final residual = 0, No Iterations 0
rho max/min : 0.83124 / 0.710718
DILUPBiCG:  Solving for h, Initial residual = 0.00240286, Final residual = 3.55029e-11, No Iterations 2
max/min T: 295.614/282.487
DILUPBiCG:  Solving for p, Initial residual = 0.00214783, Final residual = 1.7087e-10, No Iterations 2
max(U): (18.684 0.145013 2.08052e-32)
max/min p: 68970/58970
diagonal:  Solving for rho, Initial residual = 0, Final residual = 0, No Iterations 0
rho max/min : 0.83124 / 0.710718
time step continuity errors : sum local = 1.35663e-11, global = 5.61241e-13, cumulative = 5.10863e-10
max/min FaceSonicCourant: 0.223507/0.0561644
max/min kappa: 1/1
ExecutionTime = 1.45 s  ClockTime = 2 s

Mean and max Acoustic Courant Numbers = 0.0482622 0.111754
Courant Number max : 0.0123011 velocity magnitude: 18.7591
Time = 0.000235

diagonal:  Solving for rho, Initial residual = 0, Final residual = 0, No Iterations 0
rho max/min : 0.83124 / 0.710718
DILUPBiCG:  Solving for h, Initial residual = 0.00239248, Final residual = 3.37625e-11, No Iterations 2
max/min T: 295.613/282.487
DILUPBiCG:  Solving for p, Initial residual = 0.00215709, Final residual = 1.77125e-10, No Iterations 2
max(U): (18.6871 0.146357 2.07995e-32)
max/min p: 68970/58970
diagonal:  Solving for rho, Initial residual = 0, Final residual = 0, No Iterations 0
rho max/min : 0.83124 / 0.710718
time step continuity errors : sum local = 1.40038e-11, global = 1.37746e-12, cumulative = 5.12241e-10
max/min FaceSonicCourant: 0.223507/0.0561644
max/min kappa: 1/1
ExecutionTime = 1.45 s  ClockTime = 2 s

Mean and max Acoustic Courant Numbers = 0.0482668 0.111754
Courant Number max : 0.012301 velocity magnitude: 18.759
Time = 0.000236

diagonal:  Solving for rho, Initial residual = 0, Final residual = 0, No Iterations 0
rho max/min : 0.83124 / 0.710718
DILUPBiCG:  Solving for h, Initial residual = 0.00238222, Final residual = 3.10012e-11, No Iterations 2
max/min T: 295.613/282.488
DILUPBiCG:  Solving for p, Initial residual = 0.00216647, Final residual = 2.04516e-10, No Iterations 2
max(U): (18.6901 0.149749 2.07919e-32)
max/min p: 68970/58970
diagonal:  Solving for rho, Initial residual = 0, Final residual = 0, No Iterations 0
rho max/min : 0.83124 / 0.710718
time step continuity errors : sum local = 1.61009e-11, global = 2.21752e-12, cumulative = 5.14458e-10
max/min FaceSonicCourant: 0.223507/0.0561644
max/min kappa: 1/1
ExecutionTime = 1.46 s  ClockTime = 2 s

Mean and max Acoustic Courant Numbers = 0.0482714 0.111754
Courant Number max : 0.0123009 velocity magnitude: 18.7589
Time = 0.000237

diagonal:  Solving for rho, Initial residual = 0, Final residual = 0, No Iterations 0
rho max/min : 0.83124 / 0.710718
DILUPBiCG:  Solving for h, Initial residual = 0.00237212, Final residual = 2.79278e-11, No Iterations 2
max/min T: 295.613/282.488
DILUPBiCG:  Solving for p, Initial residual = 0.00217596, Final residual = 2.05741e-10, No Iterations 2
max(U): (18.6929 0.152445 2.07809e-32)
max/min p: 68970/58970
diagonal:  Solving for rho, Initial residual = 0, Final residual = 0, No Iterations 0
rho max/min : 0.83124 / 0.710718
time step continuity errors : sum local = 1.61284e-11, global = 2.62379e-12, cumulative = 5.17082e-10
max/min FaceSonicCourant: 0.223507/0.0561645
max/min kappa: 1/1
ExecutionTime = 1.46 s  ClockTime = 2 s

Mean and max Acoustic Courant Numbers = 0.048276 0.111754
Courant Number max : 0.0123008 velocity magnitude: 18.7588
Time = 0.000238

diagonal:  Solving for rho, Initial residual = 0, Final residual = 0, No Iterations 0
rho max/min : 0.83124 / 0.710718
DILUPBiCG:  Solving for h, Initial residual = 0.00236211, Final residual = 2.89332e-11, No Iterations 2
max/min T: 295.613/282.489
DILUPBiCG:  Solving for p, Initial residual = 0.00218551, Final residual = 1.78648e-10, No Iterations 2
max(U): (18.6955 0.154468 2.07906e-32)
max/min p: 68970/58970
diagonal:  Solving for rho, Initial residual = 0, Final residual = 0, No Iterations 0
rho max/min : 0.83124 / 0.710718
time step continuity errors : sum local = 1.3945e-11, global = 8.89233e-13, cumulative = 5.17971e-10
max/min FaceSonicCourant: 0.223507/0.0561645
max/min kappa: 1/1
ExecutionTime = 1.47 s  ClockTime = 2 s

Mean and max Acoustic Courant Numbers = 0.0482806 0.111754
Courant Number max : 0.0123007 velocity magnitude: 18.7586
Time = 0.000239

diagonal:  Solving for rho, Initial residual = 0, Final residual = 0, No Iterations 0
rho max/min : 0.83124 / 0.710718
DILUPBiCG:  Solving for h, Initial residual = 0.00235214, Final residual = 2.82152e-11, No Iterations 2
max/min T: 295.613/282.489
DILUPBiCG:  Solving for p, Initial residual = 0.00219514, Final residual = 1.77896e-10, No Iterations 2
max(U): (18.6981 0.155844 2.08021e-32)
max/min p: 68970/58970
diagonal:  Solving for rho, Initial residual = 0, Final residual = 0, No Iterations 0
rho max/min : 0.83124 / 0.710718
time step continuity errors : sum local = 1.38273e-11, global = 9.78364e-13, cumulative = 5.1895e-10
max/min FaceSonicCourant: 0.223507/0.0561646
max/min kappa: 1/1
ExecutionTime = 1.47 s  ClockTime = 2 s

Mean and max Acoustic Courant Numbers = 0.0482852 0.111754
Courant Number max : 0.0123007 velocity magnitude: 18.7585
Time = 0.00024

diagonal:  Solving for rho, Initial residual = 0, Final residual = 0, No Iterations 0
rho max/min : 0.83124 / 0.710718
DILUPBiCG:  Solving for h, Initial residual = 0.00234222, Final residual = 2.74647e-11, No Iterations 2
max/min T: 295.612/282.489
DILUPBiCG:  Solving for p, Initial residual = 0.00220482, Final residual = 1.77302e-10, No Iterations 2
max(U): (18.7015 0.156607 2.08099e-32)
max/min p: 68970/58970
diagonal:  Solving for rho, Initial residual = 0, Final residual = 0, No Iterations 0
rho max/min : 0.83124 / 0.710718
time step continuity errors : sum local = 1.37225e-11, global = 1.01199e-12, cumulative = 5.19962e-10
max/min FaceSonicCourant: 0.223507/0.0561646
max/min kappa: 1/1
ExecutionTime = 1.48 s  ClockTime = 2 s

Mean and max Acoustic Courant Numbers = 0.0482898 0.111754
Courant Number max : 0.0123006 velocity magnitude: 18.7584
Time = 0.000241

diagonal:  Solving for rho, Initial residual = 0, Final residual = 0, No Iterations 0
rho max/min : 0.83124 / 0.710718
DILUPBiCG:  Solving for h, Initial residual = 0.00233234, Final residual = 3.81511e-11, No Iterations 2
max/min T: 295.612/282.49
DILUPBiCG:  Solving for p, Initial residual = 0.0022146, Final residual = 1.77003e-10, No Iterations 2
max(U): (18.7045 0.156791 2.08136e-32)
max/min p: 68970/58970
diagonal:  Solving for rho, Initial residual = 0, Final residual = 0, No Iterations 0
rho max/min : 0.83124 / 0.710718
time step continuity errors : sum local = 1.36408e-11, global = 1.28536e-12, cumulative = 5.21247e-10
max/min FaceSonicCourant: 0.223507/0.0561646
max/min kappa: 1/1
ExecutionTime = 1.48 s  ClockTime = 2 s

Mean and max Acoustic Courant Numbers = 0.0482944 0.111754
Courant Number max : 0.0123005 velocity magnitude: 18.7582
Time = 0.000242

diagonal:  Solving for rho, Initial residual = 0, Final residual = 0, No Iterations 0
rho max/min : 0.83124 / 0.710718
DILUPBiCG:  Solving for h, Initial residual = 0.00232264, Final residual = 3.81841e-11, No Iterations 2
max/min T: 295.612/282.49
DILUPBiCG:  Solving for p, Initial residual = 0.0022245, Final residual = 1.82507e-10, No Iterations 2
max(U): (18.7071 0.156436 2.08129e-32)
max/min p: 68970/58970
diagonal:  Solving for rho, Initial residual = 0, Final residual = 0, No Iterations 0
rho max/min : 0.83124 / 0.710718
time step continuity errors : sum local = 1.40044e-11, global = 1.82562e-12, cumulative = 5.23073e-10
max/min FaceSonicCourant: 0.223507/0.0561647
max/min kappa: 1/1
ExecutionTime = 1.49 s  ClockTime = 2 s

Mean and max Acoustic Courant Numbers = 0.048299 0.111754
Courant Number max : 0.0123004 velocity magnitude: 18.7581
Time = 0.000243

diagonal:  Solving for rho, Initial residual = 0, Final residual = 0, No Iterations 0
rho max/min : 0.83124 / 0.710718
DILUPBiCG:  Solving for h, Initial residual = 0.00231306, Final residual = 3.88999e-11, No Iterations 2
max/min T: 295.611/282.49
DILUPBiCG:  Solving for p, Initial residual = 0.00223453, Final residual = 1.78471e-10, No Iterations 2
max(U): (18.7092 0.155577 2.0808e-32)
max/min p: 68970/58970
diagonal:  Solving for rho, Initial residual = 0, Final residual = 0, No Iterations 0
rho max/min : 0.83124 / 0.710718
time step continuity errors : sum local = 1.36353e-11, global = 2.40934e-12, cumulative = 5.25482e-10
max/min FaceSonicCourant: 0.223507/0.0561647
max/min kappa: 1/1
ExecutionTime = 1.49 s  ClockTime = 2 s

Mean and max Acoustic Courant Numbers = 0.0483036 0.111754
Courant Number max : 0.0123003 velocity magnitude: 18.758
Time = 0.000244

diagonal:  Solving for rho, Initial residual = 0, Final residual = 0, No Iterations 0
rho max/min : 0.83124 / 0.710718
DILUPBiCG:  Solving for h, Initial residual = 0.00230358, Final residual = 4.39528e-11, No Iterations 2
max/min T: 295.611/282.491
DILUPBiCG:  Solving for p, Initial residual = 0.0022447, Final residual = 1.96057e-10, No Iterations 2
max(U): (18.7109 0.154245 2.0799e-32)
max/min p: 68970/58970
diagonal:  Solving for rho, Initial residual = 0, Final residual = 0, No Iterations 0
rho max/min : 0.83124 / 0.710718
time step continuity errors : sum local = 1.49135e-11, global = 2.48088e-12, cumulative = 5.27963e-10
max/min FaceSonicCourant: 0.223507/0.0561647
max/min kappa: 1/1
ExecutionTime = 1.5 s  ClockTime = 2 s

Mean and max Acoustic Courant Numbers = 0.0483082 0.111754
Courant Number max : 0.0123002 velocity magnitude: 18.7579
Time = 0.000245

diagonal:  Solving for rho, Initial residual = 0, Final residual = 0, No Iterations 0
rho max/min : 0.83124 / 0.710718
DILUPBiCG:  Solving for h, Initial residual = 0.00229426, Final residual = 4.11015e-11, No Iterations 2
max/min T: 295.611/282.491
DILUPBiCG:  Solving for p, Initial residual = 0.00225497, Final residual = 1.73481e-10, No Iterations 2
max(U): (18.712 0.154793 2.07867e-32)
max/min p: 68970/58970
diagonal:  Solving for rho, Initial residual = 0, Final residual = 0, No Iterations 0
rho max/min : 0.83124 / 0.710718
time step continuity errors : sum local = 1.31383e-11, global = 1.78042e-12, cumulative = 5.29743e-10
max/min FaceSonicCourant: 0.223507/0.0561648
max/min kappa: 1/1
ExecutionTime = 1.5 s  ClockTime = 2 s

Mean and max Acoustic Courant Numbers = 0.0483127 0.111754
Courant Number max : 0.0123002 velocity magnitude: 18.7577
Time = 0.000246

diagonal:  Solving for rho, Initial residual = 0, Final residual = 0, No Iterations 0
rho max/min : 0.83124 / 0.710718
DILUPBiCG:  Solving for h, Initial residual = 0.00228501, Final residual = 3.76462e-11, No Iterations 2
max/min T: 295.611/282.492
DILUPBiCG:  Solving for p, Initial residual = 0.00226531, Final residual = 1.86904e-10, No Iterations 2
max(U): (18.7129 0.156849 2.07716e-32)
max/min p: 68970/58970
diagonal:  Solving for rho, Initial residual = 0, Final residual = 0, No Iterations 0
rho max/min : 0.83124 / 0.710718
time step continuity errors : sum local = 1.40923e-11, global = 2.56453e-12, cumulative = 5.32308e-10
max/min FaceSonicCourant: 0.223507/0.0561648
max/min kappa: 1/1
ExecutionTime = 1.51 s  ClockTime = 2 s

Mean and max Acoustic Courant Numbers = 0.0483173 0.111754
Courant Number max : 0.0123001 velocity magnitude: 18.7576
Time = 0.000247

diagonal:  Solving for rho, Initial residual = 0, Final residual = 0, No Iterations 0
rho max/min : 0.83124 / 0.710718
DILUPBiCG:  Solving for h, Initial residual = 0.00227584, Final residual = 3.6318e-11, No Iterations 2
max/min T: 295.61/282.492
DILUPBiCG:  Solving for p, Initial residual = 0.00227578, Final residual = 1.82352e-10, No Iterations 2
max(U): (18.7148 0.158246 2.07567e-32)
max/min p: 68970/58970
diagonal:  Solving for rho, Initial residual = 0, Final residual = 0, No Iterations 0
rho max/min : 0.83124 / 0.710718
time step continuity errors : sum local = 1.36879e-11, global = 1.74229e-12, cumulative = 5.3405e-10
max/min FaceSonicCourant: 0.223507/0.0561649
max/min kappa: 1/1
ExecutionTime = 1.52 s  ClockTime = 2 s

Mean and max Acoustic Courant Numbers = 0.0483219 0.111754
Courant Number max : 0.0123 velocity magnitude: 18.7575
Time = 0.000248

diagonal:  Solving for rho, Initial residual = 0, Final residual = 0, No Iterations 0
rho max/min : 0.83124 / 0.710718
DILUPBiCG:  Solving for h, Initial residual = 0.0022667, Final residual = 2.91593e-11, No Iterations 2
max/min T: 295.61/282.492
DILUPBiCG:  Solving for p, Initial residual = 0.00228633, Final residual = 1.85431e-10, No Iterations 2
max(U): (18.7166 0.159017 2.07742e-32)
max/min p: 68970/58970
diagonal:  Solving for rho, Initial residual = 0, Final residual = 0, No Iterations 0
rho max/min : 0.83124 / 0.710718
time step continuity errors : sum local = 1.3857e-11, global = 1.90046e-12, cumulative = 5.35951e-10
max/min FaceSonicCourant: 0.223507/0.0561649
max/min kappa: 1/1
ExecutionTime = 1.52 s  ClockTime = 2 s

Mean and max Acoustic Courant Numbers = 0.0483265 0.111754
Courant Number max : 0.0122999 velocity magnitude: 18.7573
Time = 0.000249

diagonal:  Solving for rho, Initial residual = 0, Final residual = 0, No Iterations 0
rho max/min : 0.83124 / 0.710718
DILUPBiCG:  Solving for h, Initial residual = 0.0022576, Final residual = 2.53426e-11, No Iterations 2
max/min T: 295.61/282.493
DILUPBiCG:  Solving for p, Initial residual = 0.00229693, Final residual = 1.74556e-10, No Iterations 2
max(U): (18.718 0.15918 2.07894e-32)
max/min p: 68970/58970
diagonal:  Solving for rho, Initial residual = 0, Final residual = 0, No Iterations 0
rho max/min : 0.83124 / 0.710718
time step continuity errors : sum local = 1.29864e-11, global = 1.51101e-12, cumulative = 5.37462e-10
max/min FaceSonicCourant: 0.223507/0.0561649
max/min kappa: 1/1
ExecutionTime = 1.53 s  ClockTime = 2 s

Mean and max Acoustic Courant Numbers = 0.0483311 0.111754
Courant Number max : 0.0122998 velocity magnitude: 18.7572
Time = 0.00025

diagonal:  Solving for rho, Initial residual = 0, Final residual = 0, No Iterations 0
rho max/min : 0.83124 / 0.710718
DILUPBiCG:  Solving for h, Initial residual = 0.00224858, Final residual = 2.75341e-11, No Iterations 2
max/min T: 295.61/282.493
DILUPBiCG:  Solving for p, Initial residual = 0.00230757, Final residual = 1.76072e-10, No Iterations 2
max(U): (18.719 0.158775 2.08017e-32)
max/min p: 68970/58970
diagonal:  Solving for rho, Initial residual = 0, Final residual = 0, No Iterations 0
rho max/min : 0.83124 / 0.710718
time step continuity errors : sum local = 1.30408e-11, global = 1.89917e-12, cumulative = 5.39361e-10
max/min FaceSonicCourant: 0.223507/0.056165
max/min kappa: 1/1
ExecutionTime = 1.55 s  ClockTime = 2 s

End

