/*---------------------------------------------------------------------------*\
| =========                 |                                                 |
| \\      /  F ield         | OpenFOAM: The Open Source CFD Toolbox           |
|  \\    /   O peration     | Version:  2012                                  |
|   \\  /    A nd           | Website:  www.openfoam.com                      |
|    \\/     M anipulation  |                                                 |
\*---------------------------------------------------------------------------*/
Build  : _269d0ffd5c-20210619 OPENFOAM=2012 patch=210618
Arch   : "LSB;label=32;scalar=64"
Exec   : interTwoPhaseCentralFoam
Date   : Dec 17 2021
Time   : 14:38:47
Host   : friday
PID    : 19559
I/O    : uncollated
Case   : /home/aleksandr/OpenFOAM/aleksandr-v2012/hybridCentralSolvers/Sources/interTwoPhaseCentralFoam/tutorial/Water
nProcs : 1
trapFpe: Floating point exception trapping enabled (FOAM_SIGFPE).
fileModificationChecking : Monitoring run-time modified files using timeStampMaster (fileModificationSkew 5, maxFileModificationPolls 20)
allowSystemOperations : Allowing user-supplied system call operations

// * * * * * * * * * * * * * * * * * * * * * * * * * * * * * * * * * * * * * //
Create time

Create mesh for time = 0


PIMPLE: no residual control data found. Calculations will employ 3 corrector loops

Selecting surfaceTensionModel constant

Constructor is working


Starting time loop


Reading g

Reading hRef
Calculating field g.h

 C1 1511.177743 C2 343.1149275
Courant Number mean: 0 max: 0
Time = 1e-07

diagonal:  Solving for rho1, Initial residual = 0, Final residual = 0, No Iterations 0
diagonal:  Solving for rho2, Initial residual = 0, Final residual = 0, No Iterations 0
PIMPLE: iteration 1
DILUPBiCGStab:  Solving for volumeFraction1, Initial residual = 1, Final residual = 0, No Iterations 1
Phase-1 volume fraction = 1  Min(volumeFraction1) = 1  Max(volumeFraction1) = 1
 max: rho1 1037.922079 min: 1033.492208
 max: rho2 118.9187904 min: 11.89187904
DILUPBiCGStab:  Solving for T, Initial residual = 1, Final residual = 5.997391617e-18, No Iterations 1
 C1 1511.177743 C2 343.1149275
DILUPBiCGStab:  Solving for p_rgh, Initial residual = 0.0003541585016, Final residual = 6.822225913e-20, No Iterations 1
max/min kappa: 0/0
PIMPLE: iteration 2
DILUPBiCGStab:  Solving for volumeFraction1, Initial residual = 0.9319148936, Final residual = 1.511793417e-17, No Iterations 1
Phase-1 volume fraction = 1  Min(volumeFraction1) = 1  Max(volumeFraction1) = 1
 max: rho1 1037.922079 min: 1033.492208
 max: rho2 118.9187904 min: 11.89187904
DILUPBiCGStab:  Solving for T, Initial residual = 0.9999999998, Final residual = 8.97409461e-17, No Iterations 1
 C1 1512.253001 C2 343.3590662
DILUPBiCGStab:  Solving for p_rgh, Initial residual = 6.401651679e-05, Final residual = 1.319909404e-20, No Iterations 1
max/min kappa: 0.001312156224/0
PIMPLE: iteration 3
DILUPBiCGStab:  Solving for volumeFraction1, Initial residual = 0.7351778656, Final residual = 1.513941163e-17, No Iterations 1
Phase-1 volume fraction = 1  Min(volumeFraction1) = 1  Max(volumeFraction1) = 1
 max: rho1 1037.922079 min: 1033.492208
 max: rho2 118.9187904 min: 11.89187904
DILUPBiCGStab:  Solving for T, Initial residual = 0.1932476995, Final residual = 1.095512822e-17, No Iterations 1
 C1 1511.830844 C2 343.263215
DILUPBiCGStab:  Solving for p_rgh, Initial residual = 1.274661268e-05, Final residual = 3.962848973e-21, No Iterations 1
max/min kappa: 0.001215777783/0
ExecutionTime = 0.11 s  ClockTime = 0 s

Courant Number mean: 8.709697394e-07 max: 0.001179953213
Time = 2e-07

diagonal:  Solving for rho1, Initial residual = 0, Final residual = 0, No Iterations 0
diagonal:  Solving for rho2, Initial residual = 0, Final residual = 0, No Iterations 0
PIMPLE: iteration 1
DILUPBiCGStab:  Solving for volumeFraction1, Initial residual = 0.608839779, Final residual = 8.710171299e-18, No Iterations 1
Phase-1 volume fraction = 1  Min(volumeFraction1) = 1  Max(volumeFraction1) = 1
 max: rho1 1037.922079 min: 1033.492208
 max: rho2 118.9187904 min: 11.89187904
DILUPBiCGStab:  Solving for T, Initial residual = 0.276762807, Final residual = 9.199152357e-18, No Iterations 1
 C1 1512.242636 C2 343.3567128
DILUPBiCGStab:  Solving for p_rgh, Initial residual = 0.0001832739905, Final residual = 2.113180245e-20, No Iterations 1
max/min kappa: 0.001219307629/0
PIMPLE: iteration 2
DILUPBiCGStab:  Solving for volumeFraction1, Initial residual = 0.5189427313, Final residual = 8.607968222e-18, No Iterations 1
Phase-1 volume fraction = 1  Min(volumeFraction1) = 1  Max(volumeFraction1) = 1
 max: rho1 1037.922079 min: 1033.492208
 max: rho2 118.9187904 min: 11.89187904
DILUPBiCGStab:  Solving for T, Initial residual = 0.1814085361, Final residual = 7.63195887e-18, No Iterations 1
 C1 1512.091268 C2 343.3223446
DILUPBiCGStab:  Solving for p_rgh, Initial residual = 8.412658866e-06, Final residual = 1.110843637e-21, No Iterations 1
max/min kappa: 0.001695284044/0
PIMPLE: iteration 3
DILUPBiCGStab:  Solving for volumeFraction1, Initial residual = 0.3295964126, Final residual = 8.588541847e-18, No Iterations 1
Phase-1 volume fraction = 1  Min(volumeFraction1) = 1  Max(volumeFraction1) = 1
 max: rho1 1037.922079 min: 1033.492208
 max: rho2 118.9187904 min: 11.89187904
DILUPBiCGStab:  Solving for T, Initial residual = 0.02489174808, Final residual = 1.244388203e-18, No Iterations 1
 C1 1512.077503 C2 343.3192192
DILUPBiCGStab:  Solving for p_rgh, Initial residual = 3.301527256e-06, Final residual = 8.725830414e-22, No Iterations 1
max/min kappa: 0.001900348064/0
ExecutionTime = 0.16 s  ClockTime = 0 s

Courant Number mean: 1.72365181e-06 max: 0.001963819472
Time = 3e-07

diagonal:  Solving for rho1, Initial residual = 0, Final residual = 0, No Iterations 0
diagonal:  Solving for rho2, Initial residual = 0, Final residual = 0, No Iterations 0
PIMPLE: iteration 1
DILUPBiCGStab:  Solving for volumeFraction1, Initial residual = 0.3663663664, Final residual = 6.7515223e-18, No Iterations 1
Phase-1 volume fraction = 1  Min(volumeFraction1) = 1  Max(volumeFraction1) = 1
 max: rho1 1037.922079 min: 1033.492208
 max: rho2 118.9187904 min: 11.89187904
DILUPBiCGStab:  Solving for T, Initial residual = 0.1680476825, Final residual = 1.780300042e-17, No Iterations 1
 C1 1512.514556 C2 343.4184526
DILUPBiCGStab:  Solving for p_rgh, Initial residual = 0.0001606697836, Final residual = 3.667704794e-20, No Iterations 1
max/min kappa: 0.001924526607/0
PIMPLE: iteration 2
DILUPBiCGStab:  Solving for volumeFraction1, Initial residual = 0.3399602386, Final residual = 1.007956906e-17, No Iterations 1
Phase-1 volume fraction = 1  Min(volumeFraction1) = 1  Max(volumeFraction1) = 1
 max: rho1 1037.922079 min: 1033.492208
 max: rho2 118.9187904 min: 11.89187904
DILUPBiCGStab:  Solving for T, Initial residual = 0.05823376467, Final residual = 9.089336129e-18, No Iterations 1
 C1 1512.478154 C2 343.4101875
DILUPBiCGStab:  Solving for p_rgh, Initial residual = 4.073730827e-06, Final residual = 6.315132596e-22, No Iterations 1
max/min kappa: 0.002177236979/0
PIMPLE: iteration 3
DILUPBiCGStab:  Solving for volumeFraction1, Initial residual = 0.2249027237, Final residual = 5.875125943e-18, No Iterations 1
Phase-1 volume fraction = 1  Min(volumeFraction1) = 1  Max(volumeFraction1) = 1
 max: rho1 1037.922079 min: 1033.492208
 max: rho2 118.9187904 min: 11.89187904
DILUPBiCGStab:  Solving for T, Initial residual = 0.01007087213, Final residual = 2.161364595e-18, No Iterations 1
 C1 1512.48764 C2 343.4123412
DILUPBiCGStab:  Solving for p_rgh, Initial residual = 1.731233121e-06, Final residual = 3.284302074e-22, No Iterations 1
max/min kappa: 0.002306703289/0
ExecutionTime = 0.21 s  ClockTime = 0 s

Courant Number mean: 2.582679697e-06 max: 0.002473164989
Time = 4e-07

diagonal:  Solving for rho1, Initial residual = 0, Final residual = 0, No Iterations 0
diagonal:  Solving for rho2, Initial residual = 0, Final residual = 0, No Iterations 0
PIMPLE: iteration 1
DILUPBiCGStab:  Solving for volumeFraction1, Initial residual = 0.2688039457, Final residual = 3.970138583e-18, No Iterations 1
Phase-1 volume fraction = 1  Min(volumeFraction1) = 1  Max(volumeFraction1) = 1
 max: rho1 1037.922079 min: 1033.492208
 max: rho2 118.9187904 min: 11.89187904
DILUPBiCGStab:  Solving for T, Initial residual = 0.1401366821, Final residual = 1.583848849e-17, No Iterations 1
 C1 1512.853607 C2 343.4954348
DILUPBiCGStab:  Solving for p_rgh, Initial residual = 0.0001545337131, Final residual = 2.561431727e-20, No Iterations 1
max/min kappa: 0.002331671319/0
PIMPLE: iteration 2
DILUPBiCGStab:  Solving for volumeFraction1, Initial residual = 0.2885057471, Final residual = 6.18919115e-18, No Iterations 1
Phase-1 volume fraction = 1  Min(volumeFraction1) = 1  Max(volumeFraction1) = 1
 max: rho1 1037.922079 min: 1033.492208
 max: rho2 118.9187904 min: 11.89187904
DILUPBiCGStab:  Solving for T, Initial residual = 0.04348481747, Final residual = 6.499151704e-18, No Iterations 1
 C1 1512.737872 C2 343.4691569
DILUPBiCGStab:  Solving for p_rgh, Initial residual = 5.772967651e-06, Final residual = 9.498553601e-22, No Iterations 1
max/min kappa: 0.002473775688/0
PIMPLE: iteration 3
DILUPBiCGStab:  Solving for volumeFraction1, Initial residual = 0.185372005, Final residual = 8.470286399e-18, No Iterations 1
Phase-1 volume fraction = 1  Min(volumeFraction1) = 1  Max(volumeFraction1) = 1
 max: rho1 1037.922079 min: 1033.492208
 max: rho2 118.9187904 min: 11.89187904
DILUPBiCGStab:  Solving for T, Initial residual = 0.006055479259, Final residual = 4.685137179e-19, No Iterations 1
 C1 1512.74208 C2 343.4701123
DILUPBiCGStab:  Solving for p_rgh, Initial residual = 2.949384273e-06, Final residual = 3.034401088e-22, No Iterations 1
max/min kappa: 0.002535023025/0
ExecutionTime = 0.26 s  ClockTime = 0 s

Courant Number mean: 3.446666191e-06 max: 0.002769892892
Time = 5e-07

diagonal:  Solving for rho1, Initial residual = 0, Final residual = 0, No Iterations 0
diagonal:  Solving for rho2, Initial residual = 0, Final residual = 0, No Iterations 0
PIMPLE: iteration 1
DILUPBiCGStab:  Solving for volumeFraction1, Initial residual = 0.2390717755, Final residual = 3.894475244e-18, No Iterations 1
Phase-1 volume fraction = 1  Min(volumeFraction1) = 1  Max(volumeFraction1) = 1
 max: rho1 1037.922079 min: 1033.492208
 max: rho2 118.9187904 min: 11.89187904
DILUPBiCGStab:  Solving for T, Initial residual = 0.1197335312, Final residual = 3.440337975e-18, No Iterations 1
 C1 1512.992851 C2 343.5270501
DILUPBiCGStab:  Solving for p_rgh, Initial residual = 0.0001515140827, Final residual = 1.635186157e-20, No Iterations 1
max/min kappa: 0.002553117388/0
PIMPLE: iteration 2
DILUPBiCGStab:  Solving for volumeFraction1, Initial residual = 0.2526909277, Final residual = 7.511546366e-18, No Iterations 1
Phase-1 volume fraction = 1  Min(volumeFraction1) = 1  Max(volumeFraction1) = 1
 max: rho1 1037.922079 min: 1033.492208
 max: rho2 118.9187904 min: 11.89187904
DILUPBiCGStab:  Solving for T, Initial residual = 0.03682603533, Final residual = 2.33577675e-18, No Iterations 1
 C1 1512.934338 C2 343.5137648
DILUPBiCGStab:  Solving for p_rgh, Initial residual = 4.387816867e-06, Final residual = 4.593504467e-22, No Iterations 1
max/min kappa: 0.002612534681/0
PIMPLE: iteration 3
DILUPBiCGStab:  Solving for volumeFraction1, Initial residual = 0.1560364465, Final residual = 5.500611218e-18, No Iterations 1
Phase-1 volume fraction = 1  Min(volumeFraction1) = 1  Max(volumeFraction1) = 1
 max: rho1 1037.922079 min: 1033.492208
 max: rho2 118.9187904 min: 11.89187904
DILUPBiCGStab:  Solving for T, Initial residual = 0.005149064964, Final residual = 3.494850875e-19, No Iterations 1
 C1 1512.932901 C2 343.5134385
DILUPBiCGStab:  Solving for p_rgh, Initial residual = 4.221235354e-06, Final residual = 1.794901654e-22, No Iterations 1
max/min kappa: 0.002654585505/0
ExecutionTime = 0.31 s  ClockTime = 0 s

Courant Number mean: 4.311604236e-06 max: 0.002936260844
Time = 6e-07

diagonal:  Solving for rho1, Initial residual = 0, Final residual = 0, No Iterations 0
diagonal:  Solving for rho2, Initial residual = 0, Final residual = 0, No Iterations 0
PIMPLE: iteration 1
DILUPBiCGStab:  Solving for volumeFraction1, Initial residual = 0.21021611, Final residual = 3.162888687e-18, No Iterations 1
Phase-1 volume fraction = 1  Min(volumeFraction1) = 1  Max(volumeFraction1) = 1
 max: rho1 1037.922079 min: 1033.492208
 max: rho2 118.9187904 min: 11.89187904
DILUPBiCGStab:  Solving for T, Initial residual = 0.1010875532, Final residual = 1.712155307e-17, No Iterations 1
 C1 1513.257955 C2 343.5872424
DILUPBiCGStab:  Solving for p_rgh, Initial residual = 0.0001501861768, Final residual = 3.225785236e-20, No Iterations 1
max/min kappa: 0.002659877653/0
PIMPLE: iteration 2
DILUPBiCGStab:  Solving for volumeFraction1, Initial residual = 0.2294617564, Final residual = 6.814575133e-18, No Iterations 1
Phase-1 volume fraction = 1  Min(volumeFraction1) = 1  Max(volumeFraction1) = 1
 max: rho1 1037.922079 min: 1033.492208
 max: rho2 118.9187904 min: 11.89187904
DILUPBiCGStab:  Solving for T, Initial residual = 0.02832614931, Final residual = 3.088843152e-18, No Iterations 1
 C1 1513.169729 C2 343.5672105
DILUPBiCGStab:  Solving for p_rgh, Initial residual = 3.831756539e-06, Final residual = 4.541644605e-22, No Iterations 1
max/min kappa: 0.002677260193/0
PIMPLE: iteration 3
DILUPBiCGStab:  Solving for volumeFraction1, Initial residual = 0.1200412159, Final residual = 5.03347676e-18, No Iterations 1
Phase-1 volume fraction = 1  Min(volumeFraction1) = 1  Max(volumeFraction1) = 1
 max: rho1 1037.922079 min: 1033.492208
 max: rho2 118.9187904 min: 11.89187904
DILUPBiCGStab:  Solving for T, Initial residual = 0.002044993402, Final residual = 1.914894953e-19, No Iterations 1
 C1 1513.168061 C2 343.5668319
DILUPBiCGStab:  Solving for p_rgh, Initial residual = 2.628571533e-06, Final residual = 4.301782967e-22, No Iterations 1
max/min kappa: 0.00269882633/0
ExecutionTime = 0.37 s  ClockTime = 0 s

Courant Number mean: 5.177617086e-06 max: 0.003017966383
Time = 7e-07

diagonal:  Solving for rho1, Initial residual = 0, Final residual = 0, No Iterations 0
diagonal:  Solving for rho2, Initial residual = 0, Final residual = 0, No Iterations 0
PIMPLE: iteration 1
DILUPBiCGStab:  Solving for volumeFraction1, Initial residual = 0.1745283019, Final residual = 3.71830602e-18, No Iterations 1
Phase-1 volume fraction = 1  Min(volumeFraction1) = 1  Max(volumeFraction1) = 1
 max: rho1 1037.922079 min: 1033.492208
 max: rho2 118.9187904 min: 11.89187904
DILUPBiCGStab:  Solving for T, Initial residual = 0.0875184547, Final residual = 1.596457366e-17, No Iterations 1
 C1 1513.401602 C2 343.6198578
DILUPBiCGStab:  Solving for p_rgh, Initial residual = 0.0001483906603, Final residual = 4.961504334e-20, No Iterations 1
max/min kappa: 0.002703243311/0
PIMPLE: iteration 2
DILUPBiCGStab:  Solving for volumeFraction1, Initial residual = 0.1855245076, Final residual = 4.780947349e-18, No Iterations 1
Phase-1 volume fraction = 1  Min(volumeFraction1) = 1  Max(volumeFraction1) = 1
 max: rho1 1037.922079 min: 1033.492208
 max: rho2 118.9187904 min: 11.89187904
DILUPBiCGStab:  Solving for T, Initial residual = 0.02371381914, Final residual = 5.172290763e-18, No Iterations 1
 C1 1513.305267 C2 343.5979847
DILUPBiCGStab:  Solving for p_rgh, Initial residual = 4.796843687e-06, Final residual = 6.951843291e-22, No Iterations 1
max/min kappa: 0.002695949485/0
PIMPLE: iteration 3
DILUPBiCGStab:  Solving for volumeFraction1, Initial residual = 0.1177318597, Final residual = 4.161482139e-18, No Iterations 1
Phase-1 volume fraction = 1  Min(volumeFraction1) = 1  Max(volumeFraction1) = 1
 max: rho1 1037.922079 min: 1033.492208
 max: rho2 118.9187904 min: 11.89187904
DILUPBiCGStab:  Solving for T, Initial residual = 0.003012749496, Final residual = 4.317125363e-19, No Iterations 1
 C1 1513.29735 C2 343.5961871
DILUPBiCGStab:  Solving for p_rgh, Initial residual = 1.231412681e-06, Final residual = 2.948805642e-22, No Iterations 1
max/min kappa: 0.002706848183/0
ExecutionTime = 0.42 s  ClockTime = 0 s

Courant Number mean: 6.044346865e-06 max: 0.003048947879
Time = 8e-07

diagonal:  Solving for rho1, Initial residual = 0, Final residual = 0, No Iterations 0
diagonal:  Solving for rho2, Initial residual = 0, Final residual = 0, No Iterations 0
PIMPLE: iteration 1
DILUPBiCGStab:  Solving for volumeFraction1, Initial residual = 0.1733679204, Final residual = 3.312430201e-18, No Iterations 1
Phase-1 volume fraction = 1  Min(volumeFraction1) = 1  Max(volumeFraction1) = 1
 max: rho1 1037.922079 min: 1033.492208
 max: rho2 118.9187904 min: 11.89187904
DILUPBiCGStab:  Solving for T, Initial residual = 0.07629648373, Final residual = 1.115998927e-17, No Iterations 1
 C1 1513.469976 C2 343.635382
DILUPBiCGStab:  Solving for p_rgh, Initial residual = 0.000146548837, Final residual = 2.192385304e-20, No Iterations 1
max/min kappa: 0.002709872563/0
PIMPLE: iteration 2
DILUPBiCGStab:  Solving for volumeFraction1, Initial residual = 0.1866554054, Final residual = 5.767115805e-18, No Iterations 1
Phase-1 volume fraction = 1  Min(volumeFraction1) = 1  Max(volumeFraction1) = 1
 max: rho1 1037.922079 min: 1033.492208
 max: rho2 118.9187904 min: 11.89187904
DILUPBiCGStab:  Solving for T, Initial residual = 0.02002304869, Final residual = 4.088408101e-18, No Iterations 1
 C1 1513.384178 C2 343.6159014
DILUPBiCGStab:  Solving for p_rgh, Initial residual = 6.350405733e-06, Final residual = 1.478221e-21, No Iterations 1
max/min kappa: 0.002691456535/0
PIMPLE: iteration 3
DILUPBiCGStab:  Solving for volumeFraction1, Initial residual = 0.1023131673, Final residual = 3.408186569e-18, No Iterations 1
Phase-1 volume fraction = 1  Min(volumeFraction1) = 1  Max(volumeFraction1) = 1
 max: rho1 1037.922079 min: 1033.492208
 max: rho2 118.9187904 min: 11.89187904
DILUPBiCGStab:  Solving for T, Initial residual = 0.002350854477, Final residual = 3.899159564e-19, No Iterations 1
 C1 1513.376017 C2 343.6140486
DILUPBiCGStab:  Solving for p_rgh, Initial residual = 1.338790591e-06, Final residual = 1.059391439e-22, No Iterations 1
max/min kappa: 0.002696453724/0
ExecutionTime = 0.48 s  ClockTime = 0 s

Courant Number mean: 6.911653136e-06 max: 0.003053347801
Time = 9e-07

diagonal:  Solving for rho1, Initial residual = 0, Final residual = 0, No Iterations 0
diagonal:  Solving for rho2, Initial residual = 0, Final residual = 0, No Iterations 0
PIMPLE: iteration 1
DILUPBiCGStab:  Solving for volumeFraction1, Initial residual = 0.1384, Final residual = 3.153215489e-18, No Iterations 1
Phase-1 volume fraction = 1  Min(volumeFraction1) = 1  Max(volumeFraction1) = 1
 max: rho1 1037.922079 min: 1033.492208
 max: rho2 118.9187904 min: 11.89187904
DILUPBiCGStab:  Solving for T, Initial residual = 0.0667901502, Final residual = 7.304748228e-18, No Iterations 1
 C1 1513.56416 C2 343.6567667
DILUPBiCGStab:  Solving for p_rgh, Initial residual = 0.0001448663471, Final residual = 2.082898619e-20, No Iterations 1
max/min kappa: 0.002697740517/0
PIMPLE: iteration 2
DILUPBiCGStab:  Solving for volumeFraction1, Initial residual = 0.1578541104, Final residual = 5.570397432e-18, No Iterations 1
Phase-1 volume fraction = 1  Min(volumeFraction1) = 1  Max(volumeFraction1) = 1
 max: rho1 1037.922079 min: 1033.492208
 max: rho2 118.9187904 min: 11.89187904
DILUPBiCGStab:  Solving for T, Initial residual = 0.01661586212, Final residual = 1.269314964e-18, No Iterations 1
 C1 1513.501059 C2 343.6424395
DILUPBiCGStab:  Solving for p_rgh, Initial residual = 3.514359322e-06, Final residual = 7.947909112e-22, No Iterations 1
max/min kappa: 0.002676760736/0
PIMPLE: iteration 3
DILUPBiCGStab:  Solving for volumeFraction1, Initial residual = 0.08887970236, Final residual = 3.579893895e-18, No Iterations 1
Phase-1 volume fraction = 1  Min(volumeFraction1) = 1  Max(volumeFraction1) = 1
 max: rho1 1037.922079 min: 1033.492208
 max: rho2 118.9187904 min: 11.89187904
DILUPBiCGStab:  Solving for T, Initial residual = 0.002248773895, Final residual = 2.822605931e-19, No Iterations 1
 C1 1513.494585 C2 343.6409696
DILUPBiCGStab:  Solving for p_rgh, Initial residual = 3.574517382e-06, Final residual = 4.482903301e-22, No Iterations 1
max/min kappa: 0.002679151503/0
ExecutionTime = 0.53 s  ClockTime = 0 s

Courant Number mean: 7.778916347e-06 max: 0.003045892019
Time = 1e-06

diagonal:  Solving for rho1, Initial residual = 0, Final residual = 0, No Iterations 0
diagonal:  Solving for rho2, Initial residual = 0, Final residual = 0, No Iterations 0
PIMPLE: iteration 1
DILUPBiCGStab:  Solving for volumeFraction1, Initial residual = 0.1361256545, Final residual = 3.446269137e-18, No Iterations 1
Phase-1 volume fraction = 1  Min(volumeFraction1) = 1  Max(volumeFraction1) = 1
 max: rho1 1037.922079 min: 1033.492208
 max: rho2 118.9187904 min: 11.89187904
DILUPBiCGStab:  Solving for T, Initial residual = 0.06089482234, Final residual = 7.588680673e-18, No Iterations 1
 C1 1513.618226 C2 343.6690425
DILUPBiCGStab:  Solving for p_rgh, Initial residual = 0.0001444917108, Final residual = 2.154535621e-20, No Iterations 1
max/min kappa: 0.002679660384/0
PIMPLE: iteration 2
DILUPBiCGStab:  Solving for volumeFraction1, Initial residual = 0.1558630736, Final residual = 4.568834921e-18, No Iterations 1
Phase-1 volume fraction = 1  Min(volumeFraction1) = 1  Max(volumeFraction1) = 1
 max: rho1 1037.922079 min: 1033.492208
 max: rho2 118.9187904 min: 11.89187904
DILUPBiCGStab:  Solving for T, Initial residual = 0.01326624895, Final residual = 1.615041082e-18, No Iterations 1
 C1 1513.571159 C2 343.6583558
DILUPBiCGStab:  Solving for p_rgh, Initial residual = 3.475547318e-06, Final residual = 1.129909039e-21, No Iterations 1
max/min kappa: 0.002661861674/0
PIMPLE: iteration 3
DILUPBiCGStab:  Solving for volumeFraction1, Initial residual = 0.1001168679, Final residual = 3.676236831e-18, No Iterations 1
Phase-1 volume fraction = 1  Min(volumeFraction1) = 1  Max(volumeFraction1) = 1
 max: rho1 1037.922079 min: 1033.492208
 max: rho2 118.9187904 min: 11.89187904
DILUPBiCGStab:  Solving for T, Initial residual = 0.001726617644, Final residual = 2.166354003e-19, No Iterations 1
 C1 1513.566043 C2 343.6571943
DILUPBiCGStab:  Solving for p_rgh, Initial residual = 1.604434338e-06, Final residual = 1.352974462e-22, No Iterations 1
max/min kappa: 0.002662328928/0
ExecutionTime = 0.58 s  ClockTime = 0 s

Courant Number mean: 8.646461892e-06 max: 0.003035551883
Time = 1.1e-06

diagonal:  Solving for rho1, Initial residual = 0, Final residual = 0, No Iterations 0
diagonal:  Solving for rho2, Initial residual = 0, Final residual = 0, No Iterations 0
PIMPLE: iteration 1
DILUPBiCGStab:  Solving for volumeFraction1, Initial residual = 0.1351153424, Final residual = 2.398656634e-18, No Iterations 1
Phase-1 volume fraction = 1  Min(volumeFraction1) = 1  Max(volumeFraction1) = 1
 max: rho1 1037.922079 min: 1033.492208
 max: rho2 118.9187904 min: 11.89187904
DILUPBiCGStab:  Solving for T, Initial residual = 0.05569977407, Final residual = 8.66427127e-18, No Iterations 1
 C1 1513.677113 C2 343.6824129
DILUPBiCGStab:  Solving for p_rgh, Initial residual = 0.0001450460629, Final residual = 2.582255298e-20, No Iterations 1
max/min kappa: 0.002661945026/0
PIMPLE: iteration 2
DILUPBiCGStab:  Solving for volumeFraction1, Initial residual = 0.1614527149, Final residual = 4.311614836e-18, No Iterations 1
Phase-1 volume fraction = 1  Min(volumeFraction1) = 1  Max(volumeFraction1) = 1
 max: rho1 1037.922079 min: 1033.492208
 max: rho2 118.9187904 min: 11.89187904
DILUPBiCGStab:  Solving for T, Initial residual = 0.01214137611, Final residual = 2.440406818e-18, No Iterations 1
 C1 1513.621684 C2 343.6698276
DILUPBiCGStab:  Solving for p_rgh, Initial residual = 4.727902243e-06, Final residual = 1.345333763e-21, No Iterations 1
max/min kappa: 0.002650197757/0
PIMPLE: iteration 3
DILUPBiCGStab:  Solving for volumeFraction1, Initial residual = 0.09635811836, Final residual = 3.243234611e-18, No Iterations 1
Phase-1 volume fraction = 1  Min(volumeFraction1) = 1  Max(volumeFraction1) = 1
 max: rho1 1037.922079 min: 1033.492208
 max: rho2 118.9187904 min: 11.89187904
DILUPBiCGStab:  Solving for T, Initial residual = 0.001230960288, Final residual = 1.31363896e-19, No Iterations 1
 C1 1513.620801 C2 343.669627
DILUPBiCGStab:  Solving for p_rgh, Initial residual = 2.622293508e-06, Final residual = 3.945653124e-22, No Iterations 1
max/min kappa: 0.002650473399/0
ExecutionTime = 0.63 s  ClockTime = 0 s

Courant Number mean: 9.514015019e-06 max: 0.00302805903
Time = 1.2e-06

diagonal:  Solving for rho1, Initial residual = 0, Final residual = 0, No Iterations 0
diagonal:  Solving for rho2, Initial residual = 0, Final residual = 0, No Iterations 0
PIMPLE: iteration 1
DILUPBiCGStab:  Solving for volumeFraction1, Initial residual = 0.1352859135, Final residual = 2.86508386e-18, No Iterations 1
Phase-1 volume fraction = 1  Min(volumeFraction1) = 1  Max(volumeFraction1) = 1
 max: rho1 1037.922079 min: 1033.492208
 max: rho2 118.9187904 min: 11.89187904
DILUPBiCGStab:  Solving for T, Initial residual = 0.05106339457, Final residual = 6.569845625e-18, No Iterations 1
 C1 1513.731795 C2 343.6948285
DILUPBiCGStab:  Solving for p_rgh, Initial residual = 0.0001454579476, Final residual = 5.906280075e-20, No Iterations 1
max/min kappa: 0.002649900617/0
PIMPLE: iteration 2
DILUPBiCGStab:  Solving for volumeFraction1, Initial residual = 0.1634647792, Final residual = 5.164029003e-18, No Iterations 1
Phase-1 volume fraction = 1  Min(volumeFraction1) = 1  Max(volumeFraction1) = 1
 max: rho1 1037.922079 min: 1033.492208
 max: rho2 118.9187904 min: 11.89187904
DILUPBiCGStab:  Solving for T, Initial residual = 0.01003174029, Final residual = 7.339012888e-19, No Iterations 1
 C1 1513.691762 C2 343.6857388
DILUPBiCGStab:  Solving for p_rgh, Initial residual = 4.330995844e-06, Final residual = 7.635994955e-22, No Iterations 1
max/min kappa: 0.002648087309/0
PIMPLE: iteration 3
DILUPBiCGStab:  Solving for volumeFraction1, Initial residual = 0.09122684376, Final residual = 2.600176522e-18, No Iterations 1
Phase-1 volume fraction = 1  Min(volumeFraction1) = 1  Max(volumeFraction1) = 1
 max: rho1 1037.922079 min: 1033.492208
 max: rho2 118.9187904 min: 11.89187904
DILUPBiCGStab:  Solving for T, Initial residual = 0.001190757154, Final residual = 1.15401487e-19, No Iterations 1
 C1 1513.690734 C2 343.6855054
DILUPBiCGStab:  Solving for p_rgh, Initial residual = 1.653280774e-06, Final residual = 1.314629991e-22, No Iterations 1
max/min kappa: 0.002649946426/0
ExecutionTime = 0.68 s  ClockTime = 1 s

Courant Number mean: 1.038142547e-05 max: 0.003025293227
Time = 1.3e-06

diagonal:  Solving for rho1, Initial residual = 0, Final residual = 0, No Iterations 0
diagonal:  Solving for rho2, Initial residual = 0, Final residual = 0, No Iterations 0
PIMPLE: iteration 1
DILUPBiCGStab:  Solving for volumeFraction1, Initial residual = 0.1218055095, Final residual = 2.911027658e-18, No Iterations 1
Phase-1 volume fraction = 1  Min(volumeFraction1) = 1  Max(volumeFraction1) = 1
 max: rho1 1037.922079 min: 1033.492208
 max: rho2 118.9187904 min: 11.89187904
DILUPBiCGStab:  Solving for T, Initial residual = 0.04728429866, Final residual = 7.155534186e-18, No Iterations 1
 C1 1513.763829 C2 343.7021017
DILUPBiCGStab:  Solving for p_rgh, Initial residual = 0.0001450593231, Final residual = 3.404857568e-20, No Iterations 1
max/min kappa: 0.002650777995/0
PIMPLE: iteration 2
