/*---------------------------------------------------------------------------*\
| =========                 |                                                 |
| \\      /  F ield         | OpenFOAM: The Open Source CFD Toolbox           |
|  \\    /   O peration     | Version:  v2012                                 |
|   \\  /    A nd           | Website:  www.openfoam.com                      |
|    \\/     M anipulation  |                                                 |
\*---------------------------------------------------------------------------*/
Build  : _7bdb509494-20201222 OPENFOAM=2012
Arch   : "LSB;label=32;scalar=64"
Exec   : interTwoPhaseCentralFoam
Date   : Nov 25 2021
Time   : 12:41:19
Host   : Jarvis
PID    : 902
I/O    : uncollated
Case   : /mnt/d/tutorial/sod/Water_5000
nProcs : 1
trapFpe: Floating point exception trapping enabled (FOAM_SIGFPE).
fileModificationChecking : Monitoring run-time modified files using timeStampMaster (fileModificationSkew 5, maxFileModificationPolls 20)
allowSystemOperations : Allowing user-supplied system call operations

// * * * * * * * * * * * * * * * * * * * * * * * * * * * * * * * * * * * * * //
Create time

Create mesh for time = 0


PIMPLE: no residual control data found. Calculations will employ 5 corrector loops


Constructor is working


Starting time loop

Courant Number mean: 0 max: 0
Time = 1e-07

PIMPLE: iteration 1
diagonal:  Solving for volumeFraction1, Initial residual = 0, Final residual = 0, No Iterations 0
max: volumeFraction1 1 min: 1

 max: rho1 1005.11843 min: 1000.511843

 max: rho2 118.9187904 min: 11.89187904

DILUPBiCGStab:  Solving for T, Initial residual = 1, Final residual = 0, No Iterations 1
 C1 1483.840134 C2 343.1143026

DILUPBiCGStab:  Solving for p, Initial residual = 0.0003436382856, Final residual = 3.569541219e-20, No Iterations 1
PIMPLE: iteration 2
diagonal:  Solving for volumeFraction1, Initial residual = 0, Final residual = 0, No Iterations 0
max: volumeFraction1 1 min: 1

 max: rho1 1005.11843 min: 1000.511843

 max: rho2 118.9187904 min: 11.89187904

DILUPBiCGStab:  Solving for T, Initial residual = 0.9999999999, Final residual = 9.221151809e-17, No Iterations 1
 C1 1484.856283 C2 343.3492708

DILUPBiCGStab:  Solving for p, Initial residual = 6.228090031e-05, Final residual = 8.213268139e-21, No Iterations 1
PIMPLE: iteration 3
diagonal:  Solving for volumeFraction1, Initial residual = 0, Final residual = 0, No Iterations 0
max: volumeFraction1 1 min: 1

 max: rho1 1005.11843 min: 1000.511843

 max: rho2 118.9187904 min: 11.89187904

DILUPBiCGStab:  Solving for T, Initial residual = 0.192407479, Final residual = 1.897136014e-17, No Iterations 1
 C1 1484.521811 C2 343.2719294

DILUPBiCGStab:  Solving for p, Initial residual = 1.228678975e-05, Final residual = 1.951783126e-21, No Iterations 1
PIMPLE: iteration 4
diagonal:  Solving for volumeFraction1, Initial residual = 0, Final residual = 0, No Iterations 0
max: volumeFraction1 1 min: 1

 max: rho1 1005.11843 min: 1000.511843

 max: rho2 118.9187904 min: 11.89187904

DILUPBiCGStab:  Solving for T, Initial residual = 0.02561021176, Final residual = 1.935423757e-19, No Iterations 1
 C1 1484.553382 C2 343.2792298

DILUPBiCGStab:  Solving for p, Initial residual = 2.733042152e-06, Final residual = 6.16390128e-23, No Iterations 1
PIMPLE: iteration 5
diagonal:  Solving for volumeFraction1, Initial residual = 0, Final residual = 0, No Iterations 0
max: volumeFraction1 1 min: 1

 max: rho1 1005.11843 min: 1000.511843

 max: rho2 118.9187904 min: 11.89187904

DILUPBiCGStab:  Solving for T, Initial residual = 0.00650936828, Final residual = 6.105422811e-19, No Iterations 1
 C1 1484.548362 C2 343.278069

DILUPBiCGStab:  Solving for p, Initial residual = 1.054500944e-06, Final residual = 1.101448371e-23, No Iterations 1
ExecutionTime = 0.32 s  ClockTime = 1 s

Courant Number mean: 8.977651406e-07 max: 0.001222904174
Time = 2e-07

PIMPLE: iteration 1
diagonal:  Solving for volumeFraction1, Initial residual = 0, Final residual = 0, No Iterations 0
max: volumeFraction1 1 min: 1

 max: rho1 1005.11843 min: 1000.511843

 max: rho2 118.9187904 min: 11.89187904

DILUPBiCGStab:  Solving for T, Initial residual = 0.266307844, Final residual = 3.874885245e-17, No Iterations 1
 C1 1484.952657 C2 343.3715557

DILUPBiCGStab:  Solving for p, Initial residual = 0.0001804767382, Final residual = 2.35442617e-20, No Iterations 1
PIMPLE: iteration 2
diagonal:  Solving for volumeFraction1, Initial residual = 0, Final residual = 0, No Iterations 0
max: volumeFraction1 1 min: 1

 max: rho1 1005.11843 min: 1000.511843

 max: rho2 118.9187904 min: 11.89187904

DILUPBiCGStab:  Solving for T, Initial residual = 0.1769021806, Final residual = 3.722986107e-17, No Iterations 1
 C1 1484.781019 C2 343.3318672

DILUPBiCGStab:  Solving for p, Initial residual = 8.875748609e-06, Final residual = 7.144889496e-22, No Iterations 1
PIMPLE: iteration 3
diagonal:  Solving for volumeFraction1, Initial residual = 0, Final residual = 0, No Iterations 0
max: volumeFraction1 1 min: 1

 max: rho1 1005.11843 min: 1000.511843

 max: rho2 118.9187904 min: 11.89187904

DILUPBiCGStab:  Solving for T, Initial residual = 0.02509042391, Final residual = 3.423028468e-18, No Iterations 1
 C1 1484.760882 C2 343.3272107

DILUPBiCGStab:  Solving for p, Initial residual = 3.000610961e-06, Final residual = 9.97906389e-22, No Iterations 1
PIMPLE: iteration 4
diagonal:  Solving for volumeFraction1, Initial residual = 0, Final residual = 0, No Iterations 0
max: volumeFraction1 1 min: 1

 max: rho1 1005.11843 min: 1000.511843

 max: rho2 118.9187904 min: 11.89187904

DILUPBiCGStab:  Solving for T, Initial residual = 0.008511283105, Final residual = 7.166845624e-19, No Iterations 1
 C1 1484.781971 C2 343.3320874

DILUPBiCGStab:  Solving for p, Initial residual = 1.937552295e-06, Final residual = 2.255366261e-22, No Iterations 1
PIMPLE: iteration 5
diagonal:  Solving for volumeFraction1, Initial residual = 0, Final residual = 0, No Iterations 0
max: volumeFraction1 1 min: 1

 max: rho1 1005.11843 min: 1000.511843

 max: rho2 118.9187904 min: 11.89187904

DILUPBiCGStab:  Solving for T, Initial residual = 0.004466568085, Final residual = 6.946614439e-19, No Iterations 1
 C1 1484.78074 C2 343.3318026

DILUPBiCGStab:  Solving for p, Initial residual = 1.408871879e-06, Final residual = 8.79207259e-23, No Iterations 1
ExecutionTime = 0.47 s  ClockTime = 1 s

Courant Number mean: 1.794201577e-06 max: 0.002062732342
Time = 3e-07

PIMPLE: iteration 1
diagonal:  Solving for volumeFraction1, Initial residual = 0, Final residual = 0, No Iterations 0
max: volumeFraction1 1 min: 1

 max: rho1 1005.11843 min: 1000.511843

 max: rho2 118.9187904 min: 11.89187904

DILUPBiCGStab:  Solving for T, Initial residual = 0.1640240011, Final residual = 1.481906502e-17, No Iterations 1
 C1 1485.224048 C2 343.4343105

DILUPBiCGStab:  Solving for p, Initial residual = 0.000158081313, Final residual = 2.207518229e-20, No Iterations 1
PIMPLE: iteration 2
diagonal:  Solving for volumeFraction1, Initial residual = 0, Final residual = 0, No Iterations 0
max: volumeFraction1 1 min: 1

 max: rho1 1005.11843 min: 1000.511843

 max: rho2 118.9187904 min: 11.89187904

DILUPBiCGStab:  Solving for T, Initial residual = 0.05580821953, Final residual = 3.620657483e-18, No Iterations 1
 C1 1485.196468 C2 343.4279331

DILUPBiCGStab:  Solving for p, Initial residual = 3.987655553e-06, Final residual = 1.031005335e-21, No Iterations 1
PIMPLE: iteration 3
diagonal:  Solving for volumeFraction1, Initial residual = 0, Final residual = 0, No Iterations 0
max: volumeFraction1 1 min: 1

 max: rho1 1005.11843 min: 1000.511843

 max: rho2 118.9187904 min: 11.89187904

DILUPBiCGStab:  Solving for T, Initial residual = 0.0103891932, Final residual = 1.695529812e-18, No Iterations 1
 C1 1485.205613 C2 343.4300477

DILUPBiCGStab:  Solving for p, Initial residual = 2.206509215e-06, Final residual = 2.443512921e-22, No Iterations 1
PIMPLE: iteration 4
diagonal:  Solving for volumeFraction1, Initial residual = 0, Final residual = 0, No Iterations 0
max: volumeFraction1 1 min: 1

 max: rho1 1005.11843 min: 1000.511843

 max: rho2 118.9187904 min: 11.89187904

DILUPBiCGStab:  Solving for T, Initial residual = 0.005221448909, Final residual = 1.021494968e-18, No Iterations 1
 C1 1485.211239 C2 343.4313486

DILUPBiCGStab:  Solving for p, Initial residual = 1.025014263e-06, Final residual = 1.328317874e-22, No Iterations 1
PIMPLE: iteration 5
diagonal:  Solving for volumeFraction1, Initial residual = 0, Final residual = 0, No Iterations 0
max: volumeFraction1 1 min: 1

 max: rho1 1005.11843 min: 1000.511843

 max: rho2 118.9187904 min: 11.89187904

DILUPBiCGStab:  Solving for T, Initial residual = 0.002428530633, Final residual = 1.125156851e-19, No Iterations 1
 C1 1485.211908 C2 343.4315033

DILUPBiCGStab:  Solving for p, Initial residual = 9.45638553e-07, Final residual = 6.494443396e-23, No Iterations 1
ExecutionTime = 0.61 s  ClockTime = 1 s

Courant Number mean: 2.690977317e-06 max: 0.00260702287
Time = 4e-07

PIMPLE: iteration 1
diagonal:  Solving for volumeFraction1, Initial residual = 0, Final residual = 0, No Iterations 0
max: volumeFraction1 1 min: 1

 max: rho1 1005.11843 min: 1000.511843

 max: rho2 118.9187904 min: 11.89187904

DILUPBiCGStab:  Solving for T, Initial residual = 0.1380950466, Final residual = 1.283204243e-17, No Iterations 1
 C1 1485.592913 C2 343.5196047

DILUPBiCGStab:  Solving for p, Initial residual = 0.0001523951508, Final residual = 3.049365681e-20, No Iterations 1
PIMPLE: iteration 2
diagonal:  Solving for volumeFraction1, Initial residual = 0, Final residual = 0, No Iterations 0
max: volumeFraction1 1 min: 1

 max: rho1 1005.11843 min: 1000.511843

 max: rho2 118.9187904 min: 11.89187904

DILUPBiCGStab:  Solving for T, Initial residual = 0.0437123723, Final residual = 4.609204434e-18, No Iterations 1
 C1 1485.473683 C2 343.4920345

DILUPBiCGStab:  Solving for p, Initial residual = 5.55864766e-06, Final residual = 8.033144749e-22, No Iterations 1
PIMPLE: iteration 3
diagonal:  Solving for volumeFraction1, Initial residual = 0, Final residual = 0, No Iterations 0
max: volumeFraction1 1 min: 1

 max: rho1 1005.11843 min: 1000.511843

 max: rho2 118.9187904 min: 11.89187904

DILUPBiCGStab:  Solving for T, Initial residual = 0.005848758419, Final residual = 3.237191837e-19, No Iterations 1
 C1 1485.477503 C2 343.4929181

DILUPBiCGStab:  Solving for p, Initial residual = 2.602119523e-06, Final residual = 2.649726746e-22, No Iterations 1
PIMPLE: iteration 4
diagonal:  Solving for volumeFraction1, Initial residual = 0, Final residual = 0, No Iterations 0
max: volumeFraction1 1 min: 1

 max: rho1 1005.11843 min: 1000.511843

 max: rho2 118.9187904 min: 11.89187904

DILUPBiCGStab:  Solving for T, Initial residual = 0.002656952927, Final residual = 8.383240206e-20, No Iterations 1
 C1 1485.480419 C2 343.4935923

DILUPBiCGStab:  Solving for p, Initial residual = 2.745619148e-06, Final residual = 3.244626416e-22, No Iterations 1
PIMPLE: iteration 5
diagonal:  Solving for volumeFraction1, Initial residual = 0, Final residual = 0, No Iterations 0
max: volumeFraction1 1 min: 1

 max: rho1 1005.11843 min: 1000.511843

 max: rho2 118.9187904 min: 11.89187904

DILUPBiCGStab:  Solving for T, Initial residual = 0.002049540914, Final residual = 9.789049664e-20, No Iterations 1
 C1 1485.482635 C2 343.4941046

DILUPBiCGStab:  Solving for p, Initial residual = 2.886035505e-06, Final residual = 9.169912875e-23, No Iterations 1
ExecutionTime = 0.75 s  ClockTime = 1 s

Courant Number mean: 3.588933019e-06 max: 0.002925475629
Time = 5e-07

PIMPLE: iteration 1
diagonal:  Solving for volumeFraction1, Initial residual = 0, Final residual = 0, No Iterations 0
max: volumeFraction1 1 min: 1

 max: rho1 1005.11843 min: 1000.511843

 max: rho2 118.9187904 min: 11.89187904

DILUPBiCGStab:  Solving for T, Initial residual = 0.1176904042, Final residual = 1.300717305e-17, No Iterations 1
 C1 1485.739432 C2 343.5534849

DILUPBiCGStab:  Solving for p, Initial residual = 0.0001495717308, Final residual = 2.379514256e-20, No Iterations 1
PIMPLE: iteration 2
diagonal:  Solving for volumeFraction1, Initial residual = 0, Final residual = 0, No Iterations 0
max: volumeFraction1 1 min: 1

 max: rho1 1005.11843 min: 1000.511843

 max: rho2 118.9187904 min: 11.89187904

DILUPBiCGStab:  Solving for T, Initial residual = 0.03543760001, Final residual = 2.642097948e-18, No Iterations 1
 C1 1485.660832 C2 343.5353098

DILUPBiCGStab:  Solving for p, Initial residual = 4.238013907e-06, Final residual = 6.024643603e-22, No Iterations 1
PIMPLE: iteration 3
diagonal:  Solving for volumeFraction1, Initial residual = 0, Final residual = 0, No Iterations 0
max: volumeFraction1 1 min: 1

 max: rho1 1005.11843 min: 1000.511843

 max: rho2 118.9187904 min: 11.89187904

DILUPBiCGStab:  Solving for T, Initial residual = 0.005196372663, Final residual = 3.565110633e-19, No Iterations 1
 C1 1485.655509 C2 343.534079

DILUPBiCGStab:  Solving for p, Initial residual = 2.83010543e-06, Final residual = 2.895288237e-22, No Iterations 1
PIMPLE: iteration 4
diagonal:  Solving for volumeFraction1, Initial residual = 0, Final residual = 0, No Iterations 0
max: volumeFraction1 1 min: 1

 max: rho1 1005.11843 min: 1000.511843

 max: rho2 118.9187904 min: 11.89187904

DILUPBiCGStab:  Solving for T, Initial residual = 0.002717988712, Final residual = 3.434936547e-19, No Iterations 1
 C1 1485.652715 C2 343.5334329

DILUPBiCGStab:  Solving for p, Initial residual = 4.244428265e-06, Final residual = 5.772346331e-22, No Iterations 1
PIMPLE: iteration 5
diagonal:  Solving for volumeFraction1, Initial residual = 0, Final residual = 0, No Iterations 0
max: volumeFraction1 1 min: 1

 max: rho1 1005.11843 min: 1000.511843

 max: rho2 118.9187904 min: 11.89187904

DILUPBiCGStab:  Solving for T, Initial residual = 0.002207152218, Final residual = 2.719725473e-19, No Iterations 1
 C1 1485.66009 C2 343.5351382

DILUPBiCGStab:  Solving for p, Initial residual = 4.585323289e-06, Final residual = 1.051116709e-21, No Iterations 1
ExecutionTime = 0.89 s  ClockTime = 1 s

Courant Number mean: 4.486034748e-06 max: 0.003103344046
Time = 6e-07

PIMPLE: iteration 1
diagonal:  Solving for volumeFraction1, Initial residual = 0, Final residual = 0, No Iterations 0
max: volumeFraction1 1 min: 1

 max: rho1 1005.11843 min: 1000.511843

 max: rho2 118.9187904 min: 11.89187904

DILUPBiCGStab:  Solving for T, Initial residual = 0.0993696143, Final residual = 1.393739648e-17, No Iterations 1
 C1 1486.000352 C2 343.6138183

DILUPBiCGStab:  Solving for p, Initial residual = 0.000148080584, Final residual = 1.667552236e-20, No Iterations 1
PIMPLE: iteration 2
diagonal:  Solving for volumeFraction1, Initial residual = 0, Final residual = 0, No Iterations 0
max: volumeFraction1 1 min: 1

 max: rho1 1005.11843 min: 1000.511843

 max: rho2 118.9187904 min: 11.89187904

DILUPBiCGStab:  Solving for T, Initial residual = 0.02772323133, Final residual = 2.891350872e-18, No Iterations 1
 C1 1485.913144 C2 343.5936529

DILUPBiCGStab:  Solving for p, Initial residual = 3.21731775e-06, Final residual = 2.149120796e-22, No Iterations 1
PIMPLE: iteration 3
diagonal:  Solving for volumeFraction1, Initial residual = 0, Final residual = 0, No Iterations 0
max: volumeFraction1 1 min: 1

 max: rho1 1005.11843 min: 1000.511843

 max: rho2 118.9187904 min: 11.89187904

DILUPBiCGStab:  Solving for T, Initial residual = 0.002162723532, Final residual = 1.92268122e-19, No Iterations 1
 C1 1485.911713 C2 343.5933222

DILUPBiCGStab:  Solving for p, Initial residual = 3.419577791e-06, Final residual = 2.20110384e-22, No Iterations 1
PIMPLE: iteration 4
diagonal:  Solving for volumeFraction1, Initial residual = 0, Final residual = 0, No Iterations 0
max: volumeFraction1 1 min: 1

 max: rho1 1005.11843 min: 1000.511843

 max: rho2 118.9187904 min: 11.89187904

DILUPBiCGStab:  Solving for T, Initial residual = 0.0008188507703, Final residual = 6.316834343e-20, No Iterations 1
 C1 1485.911412 C2 343.5932524

DILUPBiCGStab:  Solving for p, Initial residual = 5.376906751e-06, Final residual = 4.304863886e-22, No Iterations 1
PIMPLE: iteration 5
diagonal:  Solving for volumeFraction1, Initial residual = 0, Final residual = 0, No Iterations 0
max: volumeFraction1 1 min: 1

 max: rho1 1005.11843 min: 1000.511843

 max: rho2 118.9187904 min: 11.89187904

DILUPBiCGStab:  Solving for T, Initial residual = 0.001745918903, Final residual = 1.853734667e-19, No Iterations 1
 C1 1485.912689 C2 343.5935478

DILUPBiCGStab:  Solving for p, Initial residual = 7.596261115e-06, Final residual = 3.905275895e-22, No Iterations 1
ExecutionTime = 1.04 s  ClockTime = 2 s

Courant Number mean: 5.383166258e-06 max: 0.003191223516
Time = 7e-07

PIMPLE: iteration 1
diagonal:  Solving for volumeFraction1, Initial residual = 0, Final residual = 0, No Iterations 0
max: volumeFraction1 1 min: 1

 max: rho1 1005.11843 min: 1000.511843

 max: rho2 118.9187904 min: 11.89187904

DILUPBiCGStab:  Solving for T, Initial residual = 0.08699338227, Final residual = 1.335943396e-17, No Iterations 1
 C1 1486.158428 C2 343.650371

DILUPBiCGStab:  Solving for p, Initial residual = 0.0001462825015, Final residual = 2.938539736e-20, No Iterations 1
PIMPLE: iteration 2
diagonal:  Solving for volumeFraction1, Initial residual = 0, Final residual = 0, No Iterations 0
max: volumeFraction1 1 min: 1

 max: rho1 1005.11843 min: 1000.511843

 max: rho2 118.9187904 min: 11.89187904

DILUPBiCGStab:  Solving for T, Initial residual = 0.0242777576, Final residual = 2.918972843e-18, No Iterations 1
 C1 1486.061038 C2 343.6278511

DILUPBiCGStab:  Solving for p, Initial residual = 5.111966974e-06, Final residual = 5.812678151e-22, No Iterations 1
PIMPLE: iteration 3
diagonal:  Solving for volumeFraction1, Initial residual = 0, Final residual = 0, No Iterations 0
max: volumeFraction1 1 min: 1

 max: rho1 1005.11843 min: 1000.511843

 max: rho2 118.9187904 min: 11.89187904

DILUPBiCGStab:  Solving for T, Initial residual = 0.003928150127, Final residual = 2.928244062e-19, No Iterations 1
 C1 1486.05247 C2 343.62587

DILUPBiCGStab:  Solving for p, Initial residual = 8.937230931e-07, Final residual = 1.402658947e-22, No Iterations 1
PIMPLE: iteration 4
diagonal:  Solving for volumeFraction1, Initial residual = 0, Final residual = 0, No Iterations 0
max: volumeFraction1 1 min: 1

 max: rho1 1005.11843 min: 1000.511843

 max: rho2 118.9187904 min: 11.89187904

DILUPBiCGStab:  Solving for T, Initial residual = 0.001907505617, Final residual = 1.829185853e-19, No Iterations 1
 C1 1486.053107 C2 343.6260171

DILUPBiCGStab:  Solving for p, Initial residual = 3.417619224e-06, Final residual = 2.36769376e-22, No Iterations 1
PIMPLE: iteration 5
diagonal:  Solving for volumeFraction1, Initial residual = 0, Final residual = 0, No Iterations 0
max: volumeFraction1 1 min: 1

 max: rho1 1005.11843 min: 1000.511843

 max: rho2 118.9187904 min: 11.89187904

DILUPBiCGStab:  Solving for T, Initial residual = 0.002177333813, Final residual = 7.387364125e-20, No Iterations 1
 C1 1486.054326 C2 343.626299

DILUPBiCGStab:  Solving for p, Initial residual = 4.785583993e-06, Final residual = 2.660078895e-22, No Iterations 1
ExecutionTime = 1.18 s  ClockTime = 2 s

Courant Number mean: 6.280182229e-06 max: 0.003223578089
Time = 8e-07

PIMPLE: iteration 1
diagonal:  Solving for volumeFraction1, Initial residual = 0, Final residual = 0, No Iterations 0
max: volumeFraction1 1 min: 1

 max: rho1 1005.11843 min: 1000.511843

 max: rho2 118.9187904 min: 11.89187904

DILUPBiCGStab:  Solving for T, Initial residual = 0.07570561765, Final residual = 9.047751741e-18, No Iterations 1
 C1 1486.205569 C2 343.6612716

DILUPBiCGStab:  Solving for p, Initial residual = 0.0001443442933, Final residual = 3.329290558e-20, No Iterations 1
PIMPLE: iteration 2
diagonal:  Solving for volumeFraction1, Initial residual = 0, Final residual = 0, No Iterations 0
max: volumeFraction1 1 min: 1

 max: rho1 1005.11843 min: 1000.511843

 max: rho2 118.9187904 min: 11.89187904

DILUPBiCGStab:  Solving for T, Initial residual = 0.02059611697, Final residual = 1.719605552e-18, No Iterations 1
 C1 1486.130292 C2 343.6438649

DILUPBiCGStab:  Solving for p, Initial residual = 6.86961884e-06, Final residual = 9.774634479e-22, No Iterations 1
PIMPLE: iteration 3
diagonal:  Solving for volumeFraction1, Initial residual = 0, Final residual = 0, No Iterations 0
max: volumeFraction1 1 min: 1

 max: rho1 1005.11843 min: 1000.511843

 max: rho2 118.9187904 min: 11.89187904

DILUPBiCGStab:  Solving for T, Initial residual = 0.00235433324, Final residual = 3.188522772e-19, No Iterations 1
 C1 1486.123212 C2 343.6422279

DILUPBiCGStab:  Solving for p, Initial residual = 1.92870903e-06, Final residual = 1.795890258e-22, No Iterations 1
PIMPLE: iteration 4
diagonal:  Solving for volumeFraction1, Initial residual = 0, Final residual = 0, No Iterations 0
max: volumeFraction1 1 min: 1

 max: rho1 1005.11843 min: 1000.511843

 max: rho2 118.9187904 min: 11.89187904

DILUPBiCGStab:  Solving for T, Initial residual = 0.0009314156705, Final residual = 6.184470202e-20, No Iterations 1
 C1 1486.12345 C2 343.642283

DILUPBiCGStab:  Solving for p, Initial residual = 2.339099599e-06, Final residual = 1.374983445e-22, No Iterations 1
PIMPLE: iteration 5
diagonal:  Solving for volumeFraction1, Initial residual = 0, Final residual = 0, No Iterations 0
max: volumeFraction1 1 min: 1

 max: rho1 1005.11843 min: 1000.511843

 max: rho2 118.9187904 min: 11.89187904

DILUPBiCGStab:  Solving for T, Initial residual = 0.00113060957, Final residual = 3.354993517e-20, No Iterations 1
 C1 1486.123493 C2 343.6422927

DILUPBiCGStab:  Solving for p, Initial residual = 6.591920519e-06, Final residual = 3.769169038e-22, No Iterations 1
ExecutionTime = 1.31 s  ClockTime = 2 s

Courant Number mean: 7.177561036e-06 max: 0.003226796279
Time = 9e-07

PIMPLE: iteration 1
diagonal:  Solving for volumeFraction1, Initial residual = 0, Final residual = 0, No Iterations 0
max: volumeFraction1 1 min: 1

 max: rho1 1005.11843 min: 1000.511843

 max: rho2 118.9187904 min: 11.89187904

DILUPBiCGStab:  Solving for T, Initial residual = 0.0664643291, Final residual = 7.827331585e-18, No Iterations 1
 C1 1486.317744 C2 343.6872104

DILUPBiCGStab:  Solving for p, Initial residual = 0.0001425727043, Final residual = 3.038081667e-20, No Iterations 1
PIMPLE: iteration 2
diagonal:  Solving for volumeFraction1, Initial residual = 0, Final residual = 0, No Iterations 0
max: volumeFraction1 1 min: 1

 max: rho1 1005.11843 min: 1000.511843

 max: rho2 118.9187904 min: 11.89187904

DILUPBiCGStab:  Solving for T, Initial residual = 0.0162199548, Final residual = 1.646572708e-18, No Iterations 1
 C1 1486.249971 C2 343.6715388

DILUPBiCGStab:  Solving for p, Initial residual = 4.162535953e-06, Final residual = 5.251426252e-22, No Iterations 1
PIMPLE: iteration 3
diagonal:  Solving for volumeFraction1, Initial residual = 0, Final residual = 0, No Iterations 0
max: volumeFraction1 1 min: 1

 max: rho1 1005.11843 min: 1000.511843

 max: rho2 118.9187904 min: 11.89187904

DILUPBiCGStab:  Solving for T, Initial residual = 0.003570614471, Final residual = 3.527479763e-19, No Iterations 1
 C1 1486.241369 C2 343.6695497

DILUPBiCGStab:  Solving for p, Initial residual = 3.168319915e-06, Final residual = 1.888054634e-22, No Iterations 1
PIMPLE: iteration 4
diagonal:  Solving for volumeFraction1, Initial residual = 0, Final residual = 0, No Iterations 0
max: volumeFraction1 1 min: 1

 max: rho1 1005.11843 min: 1000.511843

 max: rho2 118.9187904 min: 11.89187904

DILUPBiCGStab:  Solving for T, Initial residual = 0.00271526023, Final residual = 4.245164979e-19, No Iterations 1
 C1 1486.241563 C2 343.6695947

DILUPBiCGStab:  Solving for p, Initial residual = 5.535856929e-06, Final residual = 5.289029812e-22, No Iterations 1
PIMPLE: iteration 5
diagonal:  Solving for volumeFraction1, Initial residual = 0, Final residual = 0, No Iterations 0
max: volumeFraction1 1 min: 1

 max: rho1 1005.11843 min: 1000.511843

 max: rho2 118.9187904 min: 11.89187904

DILUPBiCGStab:  Solving for T, Initial residual = 0.003120595914, Final residual = 6.565640871e-19, No Iterations 1
 C1 1486.240568 C2 343.6693646

DILUPBiCGStab:  Solving for p, Initial residual = 8.482597774e-06, Final residual = 9.092515264e-22, No Iterations 1
ExecutionTime = 1.44 s  ClockTime = 2 s

Courant Number mean: 8.074605907e-06 max: 0.003216112993
Time = 1e-06

PIMPLE: iteration 1
diagonal:  Solving for volumeFraction1, Initial residual = 0, Final residual = 0, No Iterations 0
max: volumeFraction1 1 min: 1

 max: rho1 1005.11843 min: 1000.511843

 max: rho2 118.9187904 min: 11.89187904

DILUPBiCGStab:  Solving for T, Initial residual = 0.06046713042, Final residual = 1.044783611e-17, No Iterations 1
 C1 1486.375425 C2 343.700548

DILUPBiCGStab:  Solving for p, Initial residual = 0.0001418924095, Final residual = 2.205602565e-20, No Iterations 1
PIMPLE: iteration 2
diagonal:  Solving for volumeFraction1, Initial residual = 0, Final residual = 0, No Iterations 0
max: volumeFraction1 1 min: 1

 max: rho1 1005.11843 min: 1000.511843

 max: rho2 118.9187904 min: 11.89187904

DILUPBiCGStab:  Solving for T, Initial residual = 0.01413989272, Final residual = 1.713714536e-18, No Iterations 1
 C1 1486.325123 C2 343.6889166

DILUPBiCGStab:  Solving for p, Initial residual = 4.983304143e-06, Final residual = 1.36133946e-21, No Iterations 1
PIMPLE: iteration 3
diagonal:  Solving for volumeFraction1, Initial residual = 0, Final residual = 0, No Iterations 0
max: volumeFraction1 1 min: 1

 max: rho1 1005.11843 min: 1000.511843

 max: rho2 118.9187904 min: 11.89187904

DILUPBiCGStab:  Solving for T, Initial residual = 0.004749032882, Final residual = 1.623342491e-19, No Iterations 1
 C1 1486.319376 C2 343.6875877

DILUPBiCGStab:  Solving for p, Initial residual = 5.04429038e-06, Final residual = 3.000841023e-22, No Iterations 1
PIMPLE: iteration 4
diagonal:  Solving for volumeFraction1, Initial residual = 0, Final residual = 0, No Iterations 0
max: volumeFraction1 1 min: 1

 max: rho1 1005.11843 min: 1000.511843

 max: rho2 118.9187904 min: 11.89187904

DILUPBiCGStab:  Solving for T, Initial residual = 0.003936613721, Final residual = 1.210278712e-19, No Iterations 1
 C1 1486.317355 C2 343.6871203

DILUPBiCGStab:  Solving for p, Initial residual = 5.937079006e-06, Final residual = 9.416531684e-22, No Iterations 1
PIMPLE: iteration 5
diagonal:  Solving for volumeFraction1, Initial residual = 0, Final residual = 0, No Iterations 0
max: volumeFraction1 1 min: 1

 max: rho1 1005.11843 min: 1000.511843

 max: rho2 118.9187904 min: 11.89187904

DILUPBiCGStab:  Solving for T, Initial residual = 0.004288408996, Final residual = 9.627490873e-19, No Iterations 1
 C1 1486.318402 C2 343.6873623

DILUPBiCGStab:  Solving for p, Initial residual = 7.179843884e-06, Final residual = 1.310256715e-21, No Iterations 1
ExecutionTime = 1.57 s  ClockTime = 2 s

Courant Number mean: 8.972214491e-06 max: 0.003202362514
Time = 1.1e-06

PIMPLE: iteration 1
diagonal:  Solving for volumeFraction1, Initial residual = 0, Final residual = 0, No Iterations 0
max: volumeFraction1 1 min: 1

 max: rho1 1005.11843 min: 1000.511843

 max: rho2 118.9187904 min: 11.89187904

DILUPBiCGStab:  Solving for T, Initial residual = 0.0553634028, Final residual = 5.829618145e-18, No Iterations 1
 C1 1486.425607 C2 343.7121519

DILUPBiCGStab:  Solving for p, Initial residual = 0.0001424713147, Final residual = 2.464628467e-20, No Iterations 1
PIMPLE: iteration 2
diagonal:  Solving for volumeFraction1, Initial residual = 0, Final residual = 0, No Iterations 0
max: volumeFraction1 1 min: 1

 max: rho1 1005.11843 min: 1000.511843

 max: rho2 118.9187904 min: 11.89187904

DILUPBiCGStab:  Solving for T, Initial residual = 0.0123951629, Final residual = 1.248689605e-18, No Iterations 1
 C1 1486.367878 C2 343.698803

DILUPBiCGStab:  Solving for p, Initial residual = 4.166956171e-06, Final residual = 6.39342698e-22, No Iterations 1
PIMPLE: iteration 3
diagonal:  Solving for volumeFraction1, Initial residual = 0, Final residual = 0, No Iterations 0
max: volumeFraction1 1 min: 1

 max: rho1 1005.11843 min: 1000.511843

 max: rho2 118.9187904 min: 11.89187904

DILUPBiCGStab:  Solving for T, Initial residual = 0.003687402443, Final residual = 1.123904573e-18, No Iterations 1
 C1 1486.362265 C2 343.6975051

DILUPBiCGStab:  Solving for p, Initial residual = 3.356295497e-06, Final residual = 6.832523285e-22, No Iterations 1
PIMPLE: iteration 4
diagonal:  Solving for volumeFraction1, Initial residual = 0, Final residual = 0, No Iterations 0
max: volumeFraction1 1 min: 1

 max: rho1 1005.11843 min: 1000.511843

 max: rho2 118.9187904 min: 11.89187904

DILUPBiCGStab:  Solving for T, Initial residual = 0.002941986424, Final residual = 7.587829459e-19, No Iterations 1
 C1 1486.361102 C2 343.6972361

DILUPBiCGStab:  Solving for p, Initial residual = 4.955201172e-06, Final residual = 1.913396564e-22, No Iterations 1
PIMPLE: iteration 5
diagonal:  Solving for volumeFraction1, Initial residual = 0, Final residual = 0, No Iterations 0
max: volumeFraction1 1 min: 1

 max: rho1 1005.11843 min: 1000.511843

 max: rho2 118.9187904 min: 11.89187904

DILUPBiCGStab:  Solving for T, Initial residual = 0.003610373788, Final residual = 1.514388407e-19, No Iterations 1
 C1 1486.360773 C2 343.6971601

DILUPBiCGStab:  Solving for p, Initial residual = 8.09041689e-06, Final residual = 2.485204065e-21, No Iterations 1
ExecutionTime = 1.69 s  ClockTime = 2 s

Courant Number mean: 9.869567382e-06 max: 0.003191864102
Time = 1.2e-06

PIMPLE: iteration 1
diagonal:  Solving for volumeFraction1, Initial residual = 0, Final residual = 0, No Iterations 0
max: volumeFraction1 1 min: 1

 max: rho1 1005.11843 min: 1000.511843

 max: rho2 118.9187904 min: 11.89187904

DILUPBiCGStab:  Solving for T, Initial residual = 0.05085499924, Final residual = 5.937590854e-18, No Iterations 1
 C1 1486.482945 C2 343.7254104

DILUPBiCGStab:  Solving for p, Initial residual = 0.0001429467148, Final residual = 2.37566113e-20, No Iterations 1
PIMPLE: iteration 2
diagonal:  Solving for volumeFraction1, Initial residual = 0, Final residual = 0, No Iterations 0
max: volumeFraction1 1 min: 1

 max: rho1 1005.11843 min: 1000.511843

 max: rho2 118.9187904 min: 11.89187904

DILUPBiCGStab:  Solving for T, Initial residual = 0.01218994204, Final residual = 2.149224616e-18, No Iterations 1
 C1 1486.438697 C2 343.7151788

DILUPBiCGStab:  Solving for p, Initial residual = 5.062399205e-06, Final residual = 1.063536166e-21, No Iterations 1
PIMPLE: iteration 3
diagonal:  Solving for volumeFraction1, Initial residual = 0, Final residual = 0, No Iterations 0
max: volumeFraction1 1 min: 1

 max: rho1 1005.11843 min: 1000.511843

 max: rho2 118.9187904 min: 11.89187904

DILUPBiCGStab:  Solving for T, Initial residual = 0.004264450619, Final residual = 2.488693733e-19, No Iterations 1
 C1 1486.43764 C2 343.7149342

DILUPBiCGStab:  Solving for p, Initial residual = 4.645174009e-06, Final residual = 9.339783733e-22, No Iterations 1
PIMPLE: iteration 4
diagonal:  Solving for volumeFraction1, Initial residual = 0, Final residual = 0, No Iterations 0
max: volumeFraction1 1 min: 1

 max: rho1 1005.11843 min: 1000.511843

 max: rho2 118.9187904 min: 11.89187904

DILUPBiCGStab:  Solving for T, Initial residual = 0.004301308921, Final residual = 3.808192358e-19, No Iterations 1
 C1 1486.43598 C2 343.7145503

DILUPBiCGStab:  Solving for p, Initial residual = 6.094277191e-06, Final residual = 1.337006454e-21, No Iterations 1
PIMPLE: iteration 5
diagonal:  Solving for volumeFraction1, Initial residual = 0, Final residual = 0, No Iterations 0
max: volumeFraction1 1 min: 1

 max: rho1 1005.11843 min: 1000.511843

 max: rho2 118.9187904 min: 11.89187904

DILUPBiCGStab:  Solving for T, Initial residual = 0.005214182252, Final residual = 7.588338686e-19, No Iterations 1
 C1 1486.436807 C2 343.7147417

DILUPBiCGStab:  Solving for p, Initial residual = 7.65836625e-06, Final residual = 4.152319467e-22, No Iterations 1
ExecutionTime = 1.81 s  ClockTime = 3 s

Courant Number mean: 1.076687737e-05 max: 0.003187199666
Time = 1.3e-06

PIMPLE: iteration 1
diagonal:  Solving for volumeFraction1, Initial residual = 0, Final residual = 0, No Iterations 0
max: volumeFraction1 1 min: 1

 max: rho1 1005.11843 min: 1000.511843

 max: rho2 118.9187904 min: 11.89187904

DILUPBiCGStab:  Solving for T, Initial residual = 0.04724410604, Final residual = 1.018609662e-17, No Iterations 1
 C1 1486.516917 C2 343.7332659

DILUPBiCGStab:  Solving for p, Initial residual = 0.0001427610569, Final residual = 1.999785255e-20, No Iterations 1
PIMPLE: iteration 2
diagonal:  Solving for volumeFraction1, Initial residual = 0, Final residual = 0, No Iterations 0
max: volumeFraction1 1 min: 1

 max: rho1 1005.11843 min: 1000.511843

 max: rho2 118.9187904 min: 11.89187904

DILUPBiCGStab:  Solving for T, Initial residual = 0.01102349487, Final residual = 1.876668216e-18, No Iterations 1
 C1 1486.484823 C2 343.7258446

DILUPBiCGStab:  Solving for p, Initial residual = 3.596151769e-06, Final residual = 4.499476445e-22, No Iterations 1
PIMPLE: iteration 3
diagonal:  Solving for volumeFraction1, Initial residual = 0, Final residual = 0, No Iterations 0
max: volumeFraction1 1 min: 1

 max: rho1 1005.11843 min: 1000.511843

 max: rho2 118.9187904 min: 11.89187904

DILUPBiCGStab:  Solving for T, Initial residual = 0.004950341895, Final residual = 5.316137569e-19, No Iterations 1
 C1 1486.482685 C2 343.7253501

DILUPBiCGStab:  Solving for p, Initial residual = 2.903809777e-06, Final residual = 1.068276801e-22, No Iterations 1
PIMPLE: iteration 4
diagonal:  Solving for volumeFraction1, Initial residual = 0, Final residual = 0, No Iterations 0
max: volumeFraction1 1 min: 1

 max: rho1 1005.11843 min: 1000.511843

 max: rho2 118.9187904 min: 11.89187904

DILUPBiCGStab:  Solving for T, Initial residual = 0.004611576214, Final residual = 4.236173268e-19, No Iterations 1
 C1 1486.48232 C2 343.7252659

DILUPBiCGStab:  Solving for p, Initial residual = 4.319544226e-06, Final residual = 4.694448262e-22, No Iterations 1
PIMPLE: iteration 5
diagonal:  Solving for volumeFraction1, Initial residual = 0, Final residual = 0, No Iterations 0
max: volumeFraction1 1 min: 1

 max: rho1 1005.11843 min: 1000.511843

 max: rho2 118.9187904 min: 11.89187904

DILUPBiCGStab:  Solving for T, Initial residual = 0.005288642722, Final residual = 6.219961835e-19, No Iterations 1
 C1 1486.482271 C2 343.7252544

DILUPBiCGStab:  Solving for p, Initial residual = 3.557920853e-06, Final residual = 2.685655747e-22, No Iterations 1
ExecutionTime = 1.94 s  ClockTime = 3 s

Courant Number mean: 1.166430215e-05 max: 0.003192811446
Time = 1.4e-06

PIMPLE: iteration 1
diagonal:  Solving for volumeFraction1, Initial residual = 0, Final residual = 0, No Iterations 0
max: volumeFraction1 1 min: 1

 max: rho1 1005.11843 min: 1000.511843

 max: rho2 118.9187904 min: 11.89187904

DILUPBiCGStab:  Solving for T, Initial residual = 0.04349931982, Final residual = 5.865523384e-18, No Iterations 1
 C1 1486.536869 C2 343.7378795

DILUPBiCGStab:  Solving for p, Initial residual = 0.0001422449044, Final residual = 1.333612604e-20, No Iterations 1
PIMPLE: iteration 2
diagonal:  Solving for volumeFraction1, Initial residual = 0, Final residual = 0, No Iterations 0
max: volumeFraction1 1 min: 1

 max: rho1 1005.11843 min: 1000.511843

 max: rho2 118.9187904 min: 11.89187904

DILUPBiCGStab:  Solving for T, Initial residual = 0.009127072827, Final residual = 7.391793683e-19, No Iterations 1
 C1 1486.508552 C2 343.7313316

DILUPBiCGStab:  Solving for p, Initial residual = 3.806992349e-06, Final residual = 4.798055711e-22, No Iterations 1
PIMPLE: iteration 3
diagonal:  Solving for volumeFraction1, Initial residual = 0, Final residual = 0, No Iterations 0
max: volumeFraction1 1 min: 1

 max: rho1 1005.11843 min: 1000.511843

 max: rho2 118.9187904 min: 11.89187904

DILUPBiCGStab:  Solving for T, Initial residual = 0.003375336343, Final residual = 4.209521874e-19, No Iterations 1
 C1 1486.506062 C2 343.7307557

DILUPBiCGStab:  Solving for p, Initial residual = 1.360218576e-06, Final residual = 1.098203984e-22, No Iterations 1
PIMPLE: iteration 4
diagonal:  Solving for volumeFraction1, Initial residual = 0, Final residual = 0, No Iterations 0
max: volumeFraction1 1 min: 1

 max: rho1 1005.11843 min: 1000.511843

 max: rho2 118.9187904 min: 11.89187904

DILUPBiCGStab:  Solving for T, Initial residual = 0.003043765411, Final residual = 2.951791498e-19, No Iterations 1
 C1 1486.505808 C2 343.7306971

DILUPBiCGStab:  Solving for p, Initial residual = 3.160656443e-06, Final residual = 1.713185628e-22, No Iterations 1
PIMPLE: iteration 5
diagonal:  Solving for volumeFraction1, Initial residual = 0, Final residual = 0, No Iterations 0
max: volumeFraction1 1 min: 1

 max: rho1 1005.11843 min: 1000.511843

 max: rho2 118.9187904 min: 11.89187904

DILUPBiCGStab:  Solving for T, Initial residual = 0.003551342125, Final residual = 3.026481422e-19, No Iterations 1
 C1 1486.505813 C2 343.7306981

DILUPBiCGStab:  Solving for p, Initial residual = 4.456758379e-06, Final residual = 4.153776494e-22, No Iterations 1
ExecutionTime = 2.07 s  ClockTime = 3 s

Courant Number mean: 1.256130915e-05 max: 0.003197364371
Time = 1.5e-06

PIMPLE: iteration 1
diagonal:  Solving for volumeFraction1, Initial residual = 0, Final residual = 0, No Iterations 0
max: volumeFraction1 1 min: 1

 max: rho1 1005.11843 min: 1000.511843

 max: rho2 118.9187904 min: 11.89187904

DILUPBiCGStab:  Solving for T, Initial residual = 0.04003651287, Final residual = 2.486422013e-18, No Iterations 1
 C1 1486.56647 C2 343.7447241

DILUPBiCGStab:  Solving for p, Initial residual = 0.000141556483, Final residual = 3.306883911e-20, No Iterations 1
PIMPLE: iteration 2
diagonal:  Solving for volumeFraction1, Initial residual = 0, Final residual = 0, No Iterations 0
max: volumeFraction1 1 min: 1

 max: rho1 1005.11843 min: 1000.511843

 max: rho2 118.9187904 min: 11.89187904

DILUPBiCGStab:  Solving for T, Initial residual = 0.00757056226, Final residual = 1.989263496e-18, No Iterations 1
 C1 1486.538887 C2 343.7383461

DILUPBiCGStab:  Solving for p, Initial residual = 3.833677858e-06, Final residual = 7.26117175e-22, No Iterations 1
PIMPLE: iteration 3
diagonal:  Solving for volumeFraction1, Initial residual = 0, Final residual = 0, No Iterations 0
max: volumeFraction1 1 min: 1

 max: rho1 1005.11843 min: 1000.511843

 max: rho2 118.9187904 min: 11.89187904

DILUPBiCGStab:  Solving for T, Initial residual = 0.002649371769, Final residual = 5.257993446e-19, No Iterations 1
 C1 1486.535588 C2 343.7375831

DILUPBiCGStab:  Solving for p, Initial residual = 2.183579298e-06, Final residual = 2.637452062e-22, No Iterations 1
PIMPLE: iteration 4
diagonal:  Solving for volumeFraction1, Initial residual = 0, Final residual = 0, No Iterations 0
max: volumeFraction1 1 min: 1

 max: rho1 1005.11843 min: 1000.511843

 max: rho2 118.9187904 min: 11.89187904

DILUPBiCGStab:  Solving for T, Initial residual = 0.0026038462, Final residual = 6.985292637e-19, No Iterations 1
 C1 1486.535873 C2 343.7376492

DILUPBiCGStab:  Solving for p, Initial residual = 3.004231503e-06, Final residual = 5.213042749e-22, No Iterations 1
PIMPLE: iteration 5
diagonal:  Solving for volumeFraction1, Initial residual = 0, Final residual = 0, No Iterations 0
max: volumeFraction1 1 min: 1

 max: rho1 1005.11843 min: 1000.511843

 max: rho2 118.9187904 min: 11.89187904

DILUPBiCGStab:  Solving for T, Initial residual = 0.003127402311, Final residual = 2.108759668e-19, No Iterations 1
 C1 1486.535794 C2 343.7376308

DILUPBiCGStab:  Solving for p, Initial residual = 3.661201477e-06, Final residual = 5.174969732e-22, No Iterations 1
ExecutionTime = 2.21 s  ClockTime = 3 s

Courant Number mean: 1.345869557e-05 max: 0.003199773053
Time = 1.6e-06

PIMPLE: iteration 1
diagonal:  Solving for volumeFraction1, Initial residual = 0, Final residual = 0, No Iterations 0
max: volumeFraction1 1 min: 1

 max: rho1 1005.11843 min: 1000.511843

 max: rho2 118.9187904 min: 11.89187904

DILUPBiCGStab:  Solving for T, Initial residual = 0.03715084843, Final residual = 8.214172194e-18, No Iterations 1
 C1 1486.580472 C2 343.747962

DILUPBiCGStab:  Solving for p, Initial residual = 0.0001409317299, Final residual = 1.813577965e-20, No Iterations 1
PIMPLE: iteration 2
diagonal:  Solving for volumeFraction1, Initial residual = 0, Final residual = 0, No Iterations 0
max: volumeFraction1 1 min: 1

 max: rho1 1005.11843 min: 1000.511843

 max: rho2 118.9187904 min: 11.89187904

DILUPBiCGStab:  Solving for T, Initial residual = 0.007191969603, Final residual = 1.362057736e-18, No Iterations 1
 C1 1486.562004 C2 343.7436914

DILUPBiCGStab:  Solving for p, Initial residual = 5.132108242e-06, Final residual = 7.12865304e-22, No Iterations 1
PIMPLE: iteration 3
diagonal:  Solving for volumeFraction1, Initial residual = 0, Final residual = 0, No Iterations 0
max: volumeFraction1 1 min: 1

 max: rho1 1005.11843 min: 1000.511843

 max: rho2 118.9187904 min: 11.89187904

DILUPBiCGStab:  Solving for T, Initial residual = 0.002375767492, Final residual = 3.454095272e-19, No Iterations 1
 C1 1486.559332 C2 343.7430736

DILUPBiCGStab:  Solving for p, Initial residual = 4.402720116e-06, Final residual = 7.225983847e-22, No Iterations 1
PIMPLE: iteration 4
diagonal:  Solving for volumeFraction1, Initial residual = 0, Final residual = 0, No Iterations 0
max: volumeFraction1 1 min: 1

 max: rho1 1005.11843 min: 1000.511843

 max: rho2 118.9187904 min: 11.89187904

DILUPBiCGStab:  Solving for T, Initial residual = 0.001965074543, Final residual = 1.674910797e-19, No Iterations 1
 C1 1486.559582 C2 343.7431314

DILUPBiCGStab:  Solving for p, Initial residual = 2.815696463e-06, Final residual = 5.015512211e-22, No Iterations 1
PIMPLE: iteration 5
diagonal:  Solving for volumeFraction1, Initial residual = 0, Final residual = 0, No Iterations 0
max: volumeFraction1 1 min: 1

 max: rho1 1005.11843 min: 1000.511843

 max: rho2 118.9187904 min: 11.89187904

DILUPBiCGStab:  Solving for T, Initial residual = 0.002070328341, Final residual = 2.667508435e-19, No Iterations 1
 C1 1486.559375 C2 343.7430835

DILUPBiCGStab:  Solving for p, Initial residual = 3.256425988e-06, Final residual = 9.600776626e-23, No Iterations 1
ExecutionTime = 2.34 s  ClockTime = 3 s

Courant Number mean: 1.435551691e-05 max: 0.003201212244
Time = 1.7e-06

PIMPLE: iteration 1
diagonal:  Solving for volumeFraction1, Initial residual = 0, Final residual = 0, No Iterations 0
max: volumeFraction1 1 min: 1

 max: rho1 1005.11843 min: 1000.511843

 max: rho2 118.9187904 min: 11.89187904

DILUPBiCGStab:  Solving for T, Initial residual = 0.03471800178, Final residual = 1.648096372e-18, No Iterations 1
 C1 1486.586787 C2 343.7494221

DILUPBiCGStab:  Solving for p, Initial residual = 0.0001408268272, Final residual = 3.228501242e-20, No Iterations 1
PIMPLE: iteration 2
diagonal:  Solving for volumeFraction1, Initial residual = 0, Final residual = 0, No Iterations 0
max: volumeFraction1 1 min: 1

 max: rho1 1005.11843 min: 1000.511843

 max: rho2 118.9187904 min: 11.89187904

DILUPBiCGStab:  Solving for T, Initial residual = 0.005539554562, Final residual = 1.093502819e-18, No Iterations 1
 C1 1486.574338 C2 343.7465435

DILUPBiCGStab:  Solving for p, Initial residual = 6.61653671e-06, Final residual = 1.307914714e-21, No Iterations 1
PIMPLE: iteration 3
diagonal:  Solving for volumeFraction1, Initial residual = 0, Final residual = 0, No Iterations 0
max: volumeFraction1 1 min: 1

 max: rho1 1005.11843 min: 1000.511843

 max: rho2 118.9187904 min: 11.89187904

DILUPBiCGStab:  Solving for T, Initial residual = 0.001104423595, Final residual = 1.198984506e-19, No Iterations 1
 C1 1486.572282 C2 343.746068

DILUPBiCGStab:  Solving for p, Initial residual = 4.859353409e-06, Final residual = 5.96026703e-22, No Iterations 1
PIMPLE: iteration 4
diagonal:  Solving for volumeFraction1, Initial residual = 0, Final residual = 0, No Iterations 0
max: volumeFraction1 1 min: 1

 max: rho1 1005.11843 min: 1000.511843

 max: rho2 118.9187904 min: 11.89187904

DILUPBiCGStab:  Solving for T, Initial residual = 0.0006141419263, Final residual = 2.675332473e-20, No Iterations 1
 C1 1486.571997 C2 343.7460022

DILUPBiCGStab:  Solving for p, Initial residual = 3.707315482e-06, Final residual = 2.62253118e-22, No Iterations 1
PIMPLE: iteration 5
diagonal:  Solving for volumeFraction1, Initial residual = 0, Final residual = 0, No Iterations 0
max: volumeFraction1 1 min: 1

 max: rho1 1005.11843 min: 1000.511843

 max: rho2 118.9187904 min: 11.89187904

DILUPBiCGStab:  Solving for T, Initial residual = 0.000727234872, Final residual = 7.661188538e-20, No Iterations 1
 C1 1486.572155 C2 343.7460387

DILUPBiCGStab:  Solving for p, Initial residual = 3.446081016e-06, Final residual = 4.387848676e-22, No Iterations 1
ExecutionTime = 2.47 s  ClockTime = 3 s

Courant Number mean: 1.525256619e-05 max: 0.003203422888
Time = 1.8e-06

PIMPLE: iteration 1
diagonal:  Solving for volumeFraction1, Initial residual = 0, Final residual = 0, No Iterations 0
max: volumeFraction1 1 min: 1

 max: rho1 1005.11843 min: 1000.511843

 max: rho2 118.9187904 min: 11.89187904

DILUPBiCGStab:  Solving for T, Initial residual = 0.03254817267, Final residual = 4.12766028e-18, No Iterations 1
 C1 1486.603207 C2 343.7532191

DILUPBiCGStab:  Solving for p, Initial residual = 0.0001409940838, Final residual = 3.586769252e-20, No Iterations 1
PIMPLE: iteration 2
diagonal:  Solving for volumeFraction1, Initial residual = 0, Final residual = 0, No Iterations 0
max: volumeFraction1 1 min: 1

 max: rho1 1005.11843 min: 1000.511843

 max: rho2 118.9187904 min: 11.89187904

DILUPBiCGStab:  Solving for T, Initial residual = 0.005024021832, Final residual = 1.03426889e-18, No Iterations 1
 C1 1486.586565 C2 343.7493707

DILUPBiCGStab:  Solving for p, Initial residual = 5.111210768e-06, Final residual = 3.443682336e-22, No Iterations 1
PIMPLE: iteration 3
diagonal:  Solving for volumeFraction1, Initial residual = 0, Final residual = 0, No Iterations 0
max: volumeFraction1 1 min: 1

 max: rho1 1005.11843 min: 1000.511843

 max: rho2 118.9187904 min: 11.89187904

DILUPBiCGStab:  Solving for T, Initial residual = 0.001035450017, Final residual = 1.607227593e-19, No Iterations 1
 C1 1486.58464 C2 343.7489257

DILUPBiCGStab:  Solving for p, Initial residual = 3.17734623e-06, Final residual = 1.409950323e-22, No Iterations 1
PIMPLE: iteration 4
diagonal:  Solving for volumeFraction1, Initial residual = 0, Final residual = 0, No Iterations 0
max: volumeFraction1 1 min: 1

 max: rho1 1005.11843 min: 1000.511843

 max: rho2 118.9187904 min: 11.89187904

DILUPBiCGStab:  Solving for T, Initial residual = 0.001017323145, Final residual = 8.346500184e-20, No Iterations 1
 C1 1486.584402 C2 343.7488707

DILUPBiCGStab:  Solving for p, Initial residual = 3.05892082e-06, Final residual = 2.739826261e-22, No Iterations 1
PIMPLE: iteration 5
diagonal:  Solving for volumeFraction1, Initial residual = 0, Final residual = 0, No Iterations 0
max: volumeFraction1 1 min: 1

 max: rho1 1005.11843 min: 1000.511843

 max: rho2 118.9187904 min: 11.89187904

DILUPBiCGStab:  Solving for T, Initial residual = 0.001289300613, Final residual = 2.969477063e-20, No Iterations 1
 C1 1486.584337 C2 343.7488556

DILUPBiCGStab:  Solving for p, Initial residual = 3.10803478e-06, Final residual = 1.008283814e-21, No Iterations 1
ExecutionTime = 2.61 s  ClockTime = 3 s

Courant Number mean: 1.614966656e-05 max: 0.003204708037
Time = 1.9e-06

PIMPLE: iteration 1
diagonal:  Solving for volumeFraction1, Initial residual = 0, Final residual = 0, No Iterations 0
max: volumeFraction1 1 min: 1

 max: rho1 1005.11843 min: 1000.511843

 max: rho2 118.9187904 min: 11.89187904

DILUPBiCGStab:  Solving for T, Initial residual = 0.03074074708, Final residual = 3.060241697e-18, No Iterations 1
 C1 1486.612044 C2 343.7552623

DILUPBiCGStab:  Solving for p, Initial residual = 0.000141089054, Final residual = 2.85836441e-20, No Iterations 1
PIMPLE: iteration 2
diagonal:  Solving for volumeFraction1, Initial residual = 0, Final residual = 0, No Iterations 0
max: volumeFraction1 1 min: 1

 max: rho1 1005.11843 min: 1000.511843

 max: rho2 118.9187904 min: 11.89187904

DILUPBiCGStab:  Solving for T, Initial residual = 0.004810634892, Final residual = 8.478174468e-19, No Iterations 1
 C1 1486.60111 C2 343.752734

DILUPBiCGStab:  Solving for p, Initial residual = 5.072207512e-06, Final residual = 9.207010039e-22, No Iterations 1
PIMPLE: iteration 3
diagonal:  Solving for volumeFraction1, Initial residual = 0, Final residual = 0, No Iterations 0
max: volumeFraction1 1 min: 1

 max: rho1 1005.11843 min: 1000.511843

 max: rho2 118.9187904 min: 11.89187904

DILUPBiCGStab:  Solving for T, Initial residual = 0.001640546808, Final residual = 4.89797735e-19, No Iterations 1
 C1 1486.599734 C2 343.752416

DILUPBiCGStab:  Solving for p, Initial residual = 4.080202827e-06, Final residual = 1.520119477e-22, No Iterations 1
PIMPLE: iteration 4
diagonal:  Solving for volumeFraction1, Initial residual = 0, Final residual = 0, No Iterations 0
max: volumeFraction1 1 min: 1

 max: rho1 1005.11843 min: 1000.511843

 max: rho2 118.9187904 min: 11.89187904

DILUPBiCGStab:  Solving for T, Initial residual = 0.001785567478, Final residual = 2.187159703e-19, No Iterations 1
 C1 1486.59918 C2 343.7522877

DILUPBiCGStab:  Solving for p, Initial residual = 3.646494934e-06, Final residual = 6.790233618e-22, No Iterations 1
PIMPLE: iteration 5
diagonal:  Solving for volumeFraction1, Initial residual = 0, Final residual = 0, No Iterations 0
max: volumeFraction1 1 min: 1

 max: rho1 1005.11843 min: 1000.511843

 max: rho2 118.9187904 min: 11.89187904

DILUPBiCGStab:  Solving for T, Initial residual = 0.002324237357, Final residual = 3.485432621e-19, No Iterations 1
 C1 1486.599555 C2 343.7523746

DILUPBiCGStab:  Solving for p, Initial residual = 3.849975497e-06, Final residual = 3.967848556e-22, No Iterations 1
ExecutionTime = 2.74 s  ClockTime = 4 s

Courant Number mean: 1.704652209e-05 max: 0.003204455434
Time = 2e-06

PIMPLE: iteration 1
diagonal:  Solving for volumeFraction1, Initial residual = 0, Final residual = 0, No Iterations 0
max: volumeFraction1 1 min: 1

 max: rho1 1005.11843 min: 1000.511843

 max: rho2 118.9187904 min: 11.89187904

DILUPBiCGStab:  Solving for T, Initial residual = 0.02915375258, Final residual = 3.197026477e-18, No Iterations 1
 C1 1486.616601 C2 343.7563162

DILUPBiCGStab:  Solving for p, Initial residual = 0.0001409994338, Final residual = 5.431524687e-20, No Iterations 1
PIMPLE: iteration 2
diagonal:  Solving for volumeFraction1, Initial residual = 0, Final residual = 0, No Iterations 0
max: volumeFraction1 1 min: 1

 max: rho1 1005.11843 min: 1000.511843

 max: rho2 118.9187904 min: 11.89187904

DILUPBiCGStab:  Solving for T, Initial residual = 0.004957725152, Final residual = 5.656193013e-19, No Iterations 1
 C1 1486.609589 C2 343.7546946

DILUPBiCGStab:  Solving for p, Initial residual = 6.805570134e-06, Final residual = 7.324152279e-22, No Iterations 1
PIMPLE: iteration 3
diagonal:  Solving for volumeFraction1, Initial residual = 0, Final residual = 0, No Iterations 0
max: volumeFraction1 1 min: 1

 max: rho1 1005.11843 min: 1000.511843

 max: rho2 118.9187904 min: 11.89187904

DILUPBiCGStab:  Solving for T, Initial residual = 0.002755853168, Final residual = 1.493189098e-19, No Iterations 1
 C1 1486.608489 C2 343.7544403

DILUPBiCGStab:  Solving for p, Initial residual = 6.82551624e-06, Final residual = 1.329975531e-21, No Iterations 1
PIMPLE: iteration 4
diagonal:  Solving for volumeFraction1, Initial residual = 0, Final residual = 0, No Iterations 0
max: volumeFraction1 1 min: 1

 max: rho1 1005.11843 min: 1000.511843

 max: rho2 118.9187904 min: 11.89187904

DILUPBiCGStab:  Solving for T, Initial residual = 0.00324538504, Final residual = 6.550576563e-19, No Iterations 1
 C1 1486.608376 C2 343.7544142

DILUPBiCGStab:  Solving for p, Initial residual = 6.69007894e-06, Final residual = 4.44734452e-22, No Iterations 1
PIMPLE: iteration 5
diagonal:  Solving for volumeFraction1, Initial residual = 0, Final residual = 0, No Iterations 0
max: volumeFraction1 1 min: 1

 max: rho1 1005.11843 min: 1000.511843

 max: rho2 118.9187904 min: 11.89187904

DILUPBiCGStab:  Solving for T, Initial residual = 0.0041389071, Final residual = 8.114563432e-19, No Iterations 1
 C1 1486.608407 C2 343.7544214

DILUPBiCGStab:  Solving for p, Initial residual = 5.897632339e-06, Final residual = 2.345838735e-22, No Iterations 1
ExecutionTime = 2.87 s  ClockTime = 4 s

Courant Number mean: 1.794307064e-05 max: 0.003203251668
Time = 2.1e-06

PIMPLE: iteration 1
diagonal:  Solving for volumeFraction1, Initial residual = 0, Final residual = 0, No Iterations 0
max: volumeFraction1 1 min: 1

 max: rho1 1005.11843 min: 1000.511843

 max: rho2 118.9187904 min: 11.89187904

DILUPBiCGStab:  Solving for T, Initial residual = 0.02767906767, Final residual = 3.18500693e-18, No Iterations 1
 C1 1486.620206 C2 343.7571497

DILUPBiCGStab:  Solving for p, Initial residual = 0.0001409165668, Final residual = 2.111716921e-20, No Iterations 1
PIMPLE: iteration 2
diagonal:  Solving for volumeFraction1, Initial residual = 0, Final residual = 0, No Iterations 0
max: volumeFraction1 1 min: 1

 max: rho1 1005.11843 min: 1000.511843

 max: rho2 118.9187904 min: 11.89187904

DILUPBiCGStab:  Solving for T, Initial residual = 0.005274769721, Final residual = 4.151138043e-19, No Iterations 1
 C1 1486.61427 C2 343.7557771

DILUPBiCGStab:  Solving for p, Initial residual = 6.486114407e-06, Final residual = 8.30541123e-22, No Iterations 1
PIMPLE: iteration 3
diagonal:  Solving for volumeFraction1, Initial residual = 0, Final residual = 0, No Iterations 0
max: volumeFraction1 1 min: 1

 max: rho1 1005.11843 min: 1000.511843

 max: rho2 118.9187904 min: 11.89187904

DILUPBiCGStab:  Solving for T, Initial residual = 0.003803495537, Final residual = 3.939901054e-19, No Iterations 1
 C1 1486.61327 C2 343.7555458

DILUPBiCGStab:  Solving for p, Initial residual = 5.852318948e-06, Final residual = 4.000160613e-22, No Iterations 1
PIMPLE: iteration 4
diagonal:  Solving for volumeFraction1, Initial residual = 0, Final residual = 0, No Iterations 0
max: volumeFraction1 1 min: 1

 max: rho1 1005.11843 min: 1000.511843

 max: rho2 118.9187904 min: 11.89187904

DILUPBiCGStab:  Solving for T, Initial residual = 0.003961020372, Final residual = 5.638249773e-19, No Iterations 1
 C1 1486.613143 C2 343.7555165

DILUPBiCGStab:  Solving for p, Initial residual = 6.07242913e-06, Final residual = 1.330939696e-21, No Iterations 1
PIMPLE: iteration 5
diagonal:  Solving for volumeFraction1, Initial residual = 0, Final residual = 0, No Iterations 0
max: volumeFraction1 1 min: 1

 max: rho1 1005.11843 min: 1000.511843

 max: rho2 118.9187904 min: 11.89187904

DILUPBiCGStab:  Solving for T, Initial residual = 0.004896790783, Final residual = 1.918907382e-19, No Iterations 1
 C1 1486.613151 C2 343.7555183

DILUPBiCGStab:  Solving for p, Initial residual = 5.553854927e-06, Final residual = 8.240616413e-22, No Iterations 1
ExecutionTime = 3.02 s  ClockTime = 4 s

Courant Number mean: 1.883970552e-05 max: 0.003201391112
Time = 2.2e-06

PIMPLE: iteration 1
diagonal:  Solving for volumeFraction1, Initial residual = 0, Final residual = 0, No Iterations 0
max: volumeFraction1 1 min: 1

 max: rho1 1005.11843 min: 1000.511843

 max: rho2 118.9187904 min: 11.89187904

DILUPBiCGStab:  Solving for T, Initial residual = 0.02633229807, Final residual = 2.136450342e-18, No Iterations 1
 C1 1486.625647 C2 343.7584079

DILUPBiCGStab:  Solving for p, Initial residual = 0.0001408313053, Final residual = 3.561981507e-20, No Iterations 1
PIMPLE: iteration 2
diagonal:  Solving for volumeFraction1, Initial residual = 0, Final residual = 0, No Iterations 0
max: volumeFraction1 1 min: 1

 max: rho1 1005.11843 min: 1000.511843

 max: rho2 118.9187904 min: 11.89187904

DILUPBiCGStab:  Solving for T, Initial residual = 0.005140511965, Final residual = 3.334252435e-19, No Iterations 1
 C1 1486.618618 C2 343.7567825

DILUPBiCGStab:  Solving for p, Initial residual = 5.876815418e-06, Final residual = 6.030734563e-22, No Iterations 1
PIMPLE: iteration 3
diagonal:  Solving for volumeFraction1, Initial residual = 0, Final residual = 0, No Iterations 0
max: volumeFraction1 1 min: 1

 max: rho1 1005.11843 min: 1000.511843

 max: rho2 118.9187904 min: 11.89187904

DILUPBiCGStab:  Solving for T, Initial residual = 0.003674334703, Final residual = 7.490942023e-19, No Iterations 1
 C1 1486.617558 C2 343.7565373

DILUPBiCGStab:  Solving for p, Initial residual = 6.029160108e-06, Final residual = 8.933448557e-22, No Iterations 1
PIMPLE: iteration 4
diagonal:  Solving for volumeFraction1, Initial residual = 0, Final residual = 0, No Iterations 0
max: volumeFraction1 1 min: 1

 max: rho1 1005.11843 min: 1000.511843

 max: rho2 118.9187904 min: 11.89187904

DILUPBiCGStab:  Solving for T, Initial residual = 0.003878055294, Final residual = 4.039117021e-19, No Iterations 1
 C1 1486.617566 C2 343.7565394

DILUPBiCGStab:  Solving for p, Initial residual = 6.525021368e-06, Final residual = 7.475154903e-22, No Iterations 1
PIMPLE: iteration 5
diagonal:  Solving for volumeFraction1, Initial residual = 0, Final residual = 0, No Iterations 0
max: volumeFraction1 1 min: 1

 max: rho1 1005.11843 min: 1000.511843

 max: rho2 118.9187904 min: 11.89187904

DILUPBiCGStab:  Solving for T, Initial residual = 0.004892781965, Final residual = 6.422478617e-19, No Iterations 1
 C1 1486.61756 C2 343.756538

DILUPBiCGStab:  Solving for p, Initial residual = 5.825677495e-06, Final residual = 2.873345004e-22, No Iterations 1
ExecutionTime = 3.13 s  ClockTime = 4 s

Courant Number mean: 1.973619176e-05 max: 0.003199393602
Time = 2.3e-06

PIMPLE: iteration 1
diagonal:  Solving for volumeFraction1, Initial residual = 0, Final residual = 0, No Iterations 0
max: volumeFraction1 1 min: 1

 max: rho1 1005.11843 min: 1000.511843

 max: rho2 118.9187904 min: 11.89187904

DILUPBiCGStab:  Solving for T, Initial residual = 0.02512191518, Final residual = 4.619390813e-18, No Iterations 1
 C1 1486.628426 C2 343.7590504

DILUPBiCGStab:  Solving for p, Initial residual = 0.0001408664697, Final residual = 2.718440655e-20, No Iterations 1
PIMPLE: iteration 2
diagonal:  Solving for volumeFraction1, Initial residual = 0, Final residual = 0, No Iterations 0
max: volumeFraction1 1 min: 1

 max: rho1 1005.11843 min: 1000.511843

 max: rho2 118.9187904 min: 11.89187904

DILUPBiCGStab:  Solving for T, Initial residual = 0.004980019325, Final residual = 4.196334766e-19, No Iterations 1
 C1 1486.623866 C2 343.757996

DILUPBiCGStab:  Solving for p, Initial residual = 6.721798367e-06, Final residual = 6.709975893e-22, No Iterations 1
PIMPLE: iteration 3
diagonal:  Solving for volumeFraction1, Initial residual = 0, Final residual = 0, No Iterations 0
max: volumeFraction1 1 min: 1

 max: rho1 1005.11843 min: 1000.511843

 max: rho2 118.9187904 min: 11.89187904

DILUPBiCGStab:  Solving for T, Initial residual = 0.003770089091, Final residual = 2.132940375e-19, No Iterations 1
 C1 1486.623031 C2 343.757803

DILUPBiCGStab:  Solving for p, Initial residual = 7.00135145e-06, Final residual = 4.625830701e-22, No Iterations 1
PIMPLE: iteration 4
diagonal:  Solving for volumeFraction1, Initial residual = 0, Final residual = 0, No Iterations 0
max: volumeFraction1 1 min: 1

 max: rho1 1005.11843 min: 1000.511843

 max: rho2 118.9187904 min: 11.89187904

DILUPBiCGStab:  Solving for T, Initial residual = 0.003989192839, Final residual = 7.978151327e-19, No Iterations 1
 C1 1486.623095 C2 343.7578178

DILUPBiCGStab:  Solving for p, Initial residual = 7.726384308e-06, Final residual = 4.527007563e-22, No Iterations 1
PIMPLE: iteration 5
diagonal:  Solving for volumeFraction1, Initial residual = 0, Final residual = 0, No Iterations 0
max: volumeFraction1 1 min: 1

 max: rho1 1005.11843 min: 1000.511843

 max: rho2 118.9187904 min: 11.89187904

DILUPBiCGStab:  Solving for T, Initial residual = 0.005028377462, Final residual = 3.061575871e-19, No Iterations 1
 C1 1486.623034 C2 343.7578037

DILUPBiCGStab:  Solving for p, Initial residual = 6.893866417e-06, Final residual = 6.377021628e-22, No Iterations 1
ExecutionTime = 3.26 s  ClockTime = 4 s

Courant Number mean: 2.063264566e-05 max: 0.003198111217
Time = 2.4e-06

PIMPLE: iteration 1
diagonal:  Solving for volumeFraction1, Initial residual = 0, Final residual = 0, No Iterations 0
max: volumeFraction1 1 min: 1

 max: rho1 1005.11843 min: 1000.511843

 max: rho2 118.9187904 min: 11.89187904

DILUPBiCGStab:  Solving for T, Initial residual = 0.02402570267, Final residual = 5.354470993e-18, No Iterations 1
 C1 1486.629632 C2 343.7593295

DILUPBiCGStab:  Solving for p, Initial residual = 0.0001409414694, Final residual = 2.130984923e-20, No Iterations 1
PIMPLE: iteration 2
diagonal:  Solving for volumeFraction1, Initial residual = 0, Final residual = 0, No Iterations 0
max: volumeFraction1 1 min: 1

 max: rho1 1005.11843 min: 1000.511843

 max: rho2 118.9187904 min: 11.89187904

DILUPBiCGStab:  Solving for T, Initial residual = 0.004772497822, Final residual = 9.065164023e-19, No Iterations 1
 C1 1486.626644 C2 343.7586385

DILUPBiCGStab:  Solving for p, Initial residual = 6.883624311e-06, Final residual = 6.554653488e-22, No Iterations 1
PIMPLE: iteration 3
diagonal:  Solving for volumeFraction1, Initial residual = 0, Final residual = 0, No Iterations 0
max: volumeFraction1 1 min: 1

 max: rho1 1005.11843 min: 1000.511843

 max: rho2 118.9187904 min: 11.89187904

DILUPBiCGStab:  Solving for T, Initial residual = 0.003799882481, Final residual = 4.052682881e-19, No Iterations 1
 C1 1486.625988 C2 343.7584868

DILUPBiCGStab:  Solving for p, Initial residual = 7.40021631e-06, Final residual = 3.559772803e-22, No Iterations 1
PIMPLE: iteration 4
diagonal:  Solving for volumeFraction1, Initial residual = 0, Final residual = 0, No Iterations 0
max: volumeFraction1 1 min: 1

 max: rho1 1005.11843 min: 1000.511843

 max: rho2 118.9187904 min: 11.89187904

DILUPBiCGStab:  Solving for T, Initial residual = 0.00393627995, Final residual = 7.900083143e-19, No Iterations 1
 C1 1486.625995 C2 343.7584883

DILUPBiCGStab:  Solving for p, Initial residual = 8.364555319e-06, Final residual = 6.545796406e-22, No Iterations 1
PIMPLE: iteration 5
diagonal:  Solving for volumeFraction1, Initial residual = 0, Final residual = 0, No Iterations 0
max: volumeFraction1 1 min: 1

 max: rho1 1005.11843 min: 1000.511843

 max: rho2 118.9187904 min: 11.89187904

DILUPBiCGStab:  Solving for T, Initial residual = 0.00500569273, Final residual = 2.132673781e-19, No Iterations 1
 C1 1486.625961 C2 343.7584806

DILUPBiCGStab:  Solving for p, Initial residual = 7.584735142e-06, Final residual = 6.754812244e-22, No Iterations 1
ExecutionTime = 3.4 s  ClockTime = 4 s

Courant Number mean: 2.152906589e-05 max: 0.003198045587
Time = 2.5e-06

PIMPLE: iteration 1
diagonal:  Solving for volumeFraction1, Initial residual = 0, Final residual = 0, No Iterations 0
max: volumeFraction1 1 min: 1

 max: rho1 1005.11843 min: 1000.511843

 max: rho2 118.9187904 min: 11.89187904

DILUPBiCGStab:  Solving for T, Initial residual = 0.02300902112, Final residual = 2.214108247e-18, No Iterations 1
 C1 1486.629758 C2 343.7593584

DILUPBiCGStab:  Solving for p, Initial residual = 0.0001409889367, Final residual = 2.942152314e-20, No Iterations 1
PIMPLE: iteration 2
diagonal:  Solving for volumeFraction1, Initial residual = 0, Final residual = 0, No Iterations 0
max: volumeFraction1 1 min: 1

 max: rho1 1005.11843 min: 1000.511843

 max: rho2 118.9187904 min: 11.89187904

DILUPBiCGStab:  Solving for T, Initial residual = 0.004614121253, Final residual = 4.417540406e-19, No Iterations 1
 C1 1486.627708 C2 343.7588845

DILUPBiCGStab:  Solving for p, Initial residual = 7.71580202e-06, Final residual = 9.885624222e-22, No Iterations 1
PIMPLE: iteration 3
diagonal:  Solving for volumeFraction1, Initial residual = 0, Final residual = 0, No Iterations 0
max: volumeFraction1 1 min: 1

 max: rho1 1005.11843 min: 1000.511843

 max: rho2 118.9187904 min: 11.89187904

DILUPBiCGStab:  Solving for T, Initial residual = 0.003856958806, Final residual = 7.36367797e-19, No Iterations 1
 C1 1486.627186 C2 343.7587638

DILUPBiCGStab:  Solving for p, Initial residual = 7.751051731e-06, Final residual = 6.115586947e-22, No Iterations 1
PIMPLE: iteration 4
diagonal:  Solving for volumeFraction1, Initial residual = 0, Final residual = 0, No Iterations 0
max: volumeFraction1 1 min: 1

 max: rho1 1005.11843 min: 1000.511843

 max: rho2 118.9187904 min: 11.89187904

DILUPBiCGStab:  Solving for T, Initial residual = 0.003984551919, Final residual = 7.058285915e-19, No Iterations 1
 C1 1486.62718 C2 343.7587625

DILUPBiCGStab:  Solving for p, Initial residual = 8.377369866e-06, Final residual = 6.391386426e-22, No Iterations 1
PIMPLE: iteration 5
diagonal:  Solving for volumeFraction1, Initial residual = 0, Final residual = 0, No Iterations 0
max: volumeFraction1 1 min: 1

 max: rho1 1005.11843 min: 1000.511843

 max: rho2 118.9187904 min: 11.89187904

DILUPBiCGStab:  Solving for T, Initial residual = 0.004996198597, Final residual = 1.086438178e-18, No Iterations 1
 C1 1486.627155 C2 343.7587565

DILUPBiCGStab:  Solving for p, Initial residual = 7.894149083e-06, Final residual = 1.575561056e-22, No Iterations 1
ExecutionTime = 3.53 s  ClockTime = 5 s

Courant Number mean: 2.242541399e-05 max: 0.003197651235
Time = 2.6e-06

PIMPLE: iteration 1
diagonal:  Solving for volumeFraction1, Initial residual = 0, Final residual = 0, No Iterations 0
max: volumeFraction1 1 min: 1

 max: rho1 1005.11843 min: 1000.511843

 max: rho2 118.9187904 min: 11.89187904

DILUPBiCGStab:  Solving for T, Initial residual = 0.02207495033, Final residual = 2.968941417e-18, No Iterations 1
 C1 1486.631866 C2 343.7598458

DILUPBiCGStab:  Solving for p, Initial residual = 0.0001409785275, Final residual = 2.099366771e-20, No Iterations 1
PIMPLE: iteration 2
diagonal:  Solving for volumeFraction1, Initial residual = 0, Final residual = 0, No Iterations 0
max: volumeFraction1 1 min: 1

 max: rho1 1005.11843 min: 1000.511843

 max: rho2 118.9187904 min: 11.89187904

DILUPBiCGStab:  Solving for T, Initial residual = 0.004536822351, Final residual = 8.450646595e-19, No Iterations 1
 C1 1486.629201 C2 343.7592298

DILUPBiCGStab:  Solving for p, Initial residual = 8.193406619e-06, Final residual = 1.513771731e-21, No Iterations 1
PIMPLE: iteration 3
diagonal:  Solving for volumeFraction1, Initial residual = 0, Final residual = 0, No Iterations 0
max: volumeFraction1 1 min: 1

 max: rho1 1005.11843 min: 1000.511843

 max: rho2 118.9187904 min: 11.89187904

DILUPBiCGStab:  Solving for T, Initial residual = 0.00389364747, Final residual = 3.790003359e-19, No Iterations 1
 C1 1486.628546 C2 343.7590784

DILUPBiCGStab:  Solving for p, Initial residual = 8.332179763e-06, Final residual = 3.232214533e-22, No Iterations 1
PIMPLE: iteration 4
diagonal:  Solving for volumeFraction1, Initial residual = 0, Final residual = 0, No Iterations 0
max: volumeFraction1 1 min: 1

 max: rho1 1005.11843 min: 1000.511843

 max: rho2 118.9187904 min: 11.89187904

DILUPBiCGStab:  Solving for T, Initial residual = 0.004026011105, Final residual = 8.830388734e-19, No Iterations 1
 C1 1486.6285 C2 343.7590676

DILUPBiCGStab:  Solving for p, Initial residual = 8.620199402e-06, Final residual = 1.776349605e-22, No Iterations 1
PIMPLE: iteration 5
diagonal:  Solving for volumeFraction1, Initial residual = 0, Final residual = 0, No Iterations 0
max: volumeFraction1 1 min: 1

 max: rho1 1005.11843 min: 1000.511843

 max: rho2 118.9187904 min: 11.89187904

DILUPBiCGStab:  Solving for T, Initial residual = 0.005038410407, Final residual = 3.690567135e-19, No Iterations 1
 C1 1486.628496 C2 343.7590667

DILUPBiCGStab:  Solving for p, Initial residual = 8.524767519e-06, Final residual = 2.760111303e-21, No Iterations 1
ExecutionTime = 3.66 s  ClockTime = 5 s

Courant Number mean: 2.332174977e-05 max: 0.003196932175
Time = 2.7e-06

PIMPLE: iteration 1
diagonal:  Solving for volumeFraction1, Initial residual = 0, Final residual = 0, No Iterations 0
max: volumeFraction1 1 min: 1

 max: rho1 1005.11843 min: 1000.511843

 max: rho2 118.9187904 min: 11.89187904

DILUPBiCGStab:  Solving for T, Initial residual = 0.02120800207, Final residual = 4.063462073e-18, No Iterations 1
 C1 1486.632805 C2 343.7600631

DILUPBiCGStab:  Solving for p, Initial residual = 0.0001409668304, Final residual = 3.749252397e-20, No Iterations 1
PIMPLE: iteration 2
diagonal:  Solving for volumeFraction1, Initial residual = 0, Final residual = 0, No Iterations 0
max: volumeFraction1 1 min: 1

 max: rho1 1005.11843 min: 1000.511843

 max: rho2 118.9187904 min: 11.89187904

DILUPBiCGStab:  Solving for T, Initial residual = 0.004385771367, Final residual = 4.338717213e-19, No Iterations 1
 C1 1486.631113 C2 343.7596718

DILUPBiCGStab:  Solving for p, Initial residual = 8.857218079e-06, Final residual = 1.788554006e-21, No Iterations 1
PIMPLE: iteration 3
diagonal:  Solving for volumeFraction1, Initial residual = 0, Final residual = 0, No Iterations 0
max: volumeFraction1 1 min: 1

 max: rho1 1005.11843 min: 1000.511843

 max: rho2 118.9187904 min: 11.89187904

DILUPBiCGStab:  Solving for T, Initial residual = 0.003956415827, Final residual = 7.746295707e-19, No Iterations 1
 C1 1486.630665 C2 343.7595683

DILUPBiCGStab:  Solving for p, Initial residual = 8.726456936e-06, Final residual = 3.992063688e-22, No Iterations 1
PIMPLE: iteration 4
diagonal:  Solving for volumeFraction1, Initial residual = 0, Final residual = 0, No Iterations 0
max: volumeFraction1 1 min: 1

 max: rho1 1005.11843 min: 1000.511843

 max: rho2 118.9187904 min: 11.89187904

DILUPBiCGStab:  Solving for T, Initial residual = 0.004089384639, Final residual = 4.320350248e-19, No Iterations 1
 C1 1486.630581 C2 343.7595488

DILUPBiCGStab:  Solving for p, Initial residual = 8.608277444e-06, Final residual = 7.215197443e-22, No Iterations 1
PIMPLE: iteration 5
diagonal:  Solving for volumeFraction1, Initial residual = 0, Final residual = 0, No Iterations 0
max: volumeFraction1 1 min: 1

 max: rho1 1005.11843 min: 1000.511843

 max: rho2 118.9187904 min: 11.89187904

DILUPBiCGStab:  Solving for T, Initial residual = 0.005099474055, Final residual = 4.015118968e-19, No Iterations 1
 C1 1486.630612 C2 343.7595559

DILUPBiCGStab:  Solving for p, Initial residual = 8.140229023e-06, Final residual = 1.506825805e-21, No Iterations 1
ExecutionTime = 3.78 s  ClockTime = 5 s

Courant Number mean: 2.421804755e-05 max: 0.003196203326
Time = 2.8e-06

PIMPLE: iteration 1
diagonal:  Solving for volumeFraction1, Initial residual = 0, Final residual = 0, No Iterations 0
max: volumeFraction1 1 min: 1

 max: rho1 1005.11843 min: 1000.511843

 max: rho2 118.9187904 min: 11.89187904

DILUPBiCGStab:  Solving for T, Initial residual = 0.02040458387, Final residual = 2.419554859e-18, No Iterations 1
 C1 1486.633131 C2 343.7601384

DILUPBiCGStab:  Solving for p, Initial residual = 0.0001410666848, Final residual = 2.36579306e-20, No Iterations 1
PIMPLE: iteration 2
diagonal:  Solving for volumeFraction1, Initial residual = 0, Final residual = 0, No Iterations 0
max: volumeFraction1 1 min: 1

 max: rho1 1005.11843 min: 1000.511843

 max: rho2 118.9187904 min: 11.89187904

DILUPBiCGStab:  Solving for T, Initial residual = 0.004167075741, Final residual = 8.449743414e-19, No Iterations 1
 C1 1486.631946 C2 343.7598645

DILUPBiCGStab:  Solving for p, Initial residual = 8.4395294e-06, Final residual = 5.38754116e-22, No Iterations 1
PIMPLE: iteration 3
diagonal:  Solving for volumeFraction1, Initial residual = 0, Final residual = 0, No Iterations 0
max: volumeFraction1 1 min: 1

 max: rho1 1005.11843 min: 1000.511843

 max: rho2 118.9187904 min: 11.89187904

DILUPBiCGStab:  Solving for T, Initial residual = 0.003831095107, Final residual = 1.662745527e-19, No Iterations 1
 C1 1486.631611 C2 343.759787

DILUPBiCGStab:  Solving for p, Initial residual = 8.461964232e-06, Final residual = 4.793688187e-22, No Iterations 1
PIMPLE: iteration 4
diagonal:  Solving for volumeFraction1, Initial residual = 0, Final residual = 0, No Iterations 0
max: volumeFraction1 1 min: 1

 max: rho1 1005.11843 min: 1000.511843

 max: rho2 118.9187904 min: 11.89187904

DILUPBiCGStab:  Solving for T, Initial residual = 0.003955365971, Final residual = 4.694449549e-19, No Iterations 1
 C1 1486.631551 C2 343.7597732

DILUPBiCGStab:  Solving for p, Initial residual = 8.480309536e-06, Final residual = 1.542259212e-22, No Iterations 1
PIMPLE: iteration 5
diagonal:  Solving for volumeFraction1, Initial residual = 0, Final residual = 0, No Iterations 0
max: volumeFraction1 1 min: 1

 max: rho1 1005.11843 min: 1000.511843

 max: rho2 118.9187904 min: 11.89187904

DILUPBiCGStab:  Solving for T, Initial residual = 0.004920640746, Final residual = 8.952566372e-19, No Iterations 1
 C1 1486.63156 C2 343.7597752

DILUPBiCGStab:  Solving for p, Initial residual = 7.864465858e-06, Final residual = 1.333403004e-21, No Iterations 1
ExecutionTime = 3.92 s  ClockTime = 5 s

Courant Number mean: 2.511436653e-05 max: 0.00319599008
Time = 2.9e-06

PIMPLE: iteration 1
diagonal:  Solving for volumeFraction1, Initial residual = 0, Final residual = 0, No Iterations 0
max: volumeFraction1 1 min: 1

 max: rho1 1005.11843 min: 1000.511843

 max: rho2 118.9187904 min: 11.89187904

DILUPBiCGStab:  Solving for T, Initial residual = 0.01965640102, Final residual = 4.085290902e-18, No Iterations 1
 C1 1486.632792 C2 343.76006

DILUPBiCGStab:  Solving for p, Initial residual = 0.0001411377209, Final residual = 2.223603199e-20, No Iterations 1
PIMPLE: iteration 2
diagonal:  Solving for volumeFraction1, Initial residual = 0, Final residual = 0, No Iterations 0
max: volumeFraction1 1 min: 1

 max: rho1 1005.11843 min: 1000.511843

 max: rho2 118.9187904 min: 11.89187904

DILUPBiCGStab:  Solving for T, Initial residual = 0.003892611593, Final residual = 1.998847453e-19, No Iterations 1
 C1 1486.631918 C2 343.7598579

DILUPBiCGStab:  Solving for p, Initial residual = 8.424774999e-06, Final residual = 1.868547266e-21, No Iterations 1
PIMPLE: iteration 3
diagonal:  Solving for volumeFraction1, Initial residual = 0, Final residual = 0, No Iterations 0
max: volumeFraction1 1 min: 1

 max: rho1 1005.11843 min: 1000.511843

 max: rho2 118.9187904 min: 11.89187904

DILUPBiCGStab:  Solving for T, Initial residual = 0.003663857179, Final residual = 1.806516442e-19, No Iterations 1
 C1 1486.631681 C2 343.7598032

DILUPBiCGStab:  Solving for p, Initial residual = 8.464302207e-06, Final residual = 5.750001205e-22, No Iterations 1
PIMPLE: iteration 4
diagonal:  Solving for volumeFraction1, Initial residual = 0, Final residual = 0, No Iterations 0
max: volumeFraction1 1 min: 1

 max: rho1 1005.11843 min: 1000.511843

 max: rho2 118.9187904 min: 11.89187904

DILUPBiCGStab:  Solving for T, Initial residual = 0.003817279745, Final residual = 4.094911887e-19, No Iterations 1
 C1 1486.631673 C2 343.7598013

DILUPBiCGStab:  Solving for p, Initial residual = 8.772586504e-06, Final residual = 4.782075083e-22, No Iterations 1
PIMPLE: iteration 5
diagonal:  Solving for volumeFraction1, Initial residual = 0, Final residual = 0, No Iterations 0
max: volumeFraction1 1 min: 1

 max: rho1 1005.11843 min: 1000.511843

 max: rho2 118.9187904 min: 11.89187904

DILUPBiCGStab:  Solving for T, Initial residual = 0.004737991163, Final residual = 3.884320169e-19, No Iterations 1
 C1 1486.631661 C2 343.7597985

DILUPBiCGStab:  Solving for p, Initial residual = 8.324490669e-06, Final residual = 1.24330146e-22, No Iterations 1
ExecutionTime = 4.05 s  ClockTime = 5 s

Courant Number mean: 2.601062496e-05 max: 0.003196513635
Time = 3e-06

PIMPLE: iteration 1
diagonal:  Solving for volumeFraction1, Initial residual = 0, Final residual = 0, No Iterations 0
max: volumeFraction1 1 min: 1

 max: rho1 1005.11843 min: 1000.511843

 max: rho2 118.9187904 min: 11.89187904

DILUPBiCGStab:  Solving for T, Initial residual = 0.01895514394, Final residual = 1.753874459e-18, No Iterations 1
 C1 1486.631975 C2 343.759871

DILUPBiCGStab:  Solving for p, Initial residual = 0.0001412073663, Final residual = 2.118710837e-20, No Iterations 1
PIMPLE: iteration 2
diagonal:  Solving for volumeFraction1, Initial residual = 0, Final residual = 0, No Iterations 0
max: volumeFraction1 1 min: 1

 max: rho1 1005.11843 min: 1000.511843

 max: rho2 118.9187904 min: 11.89187904

DILUPBiCGStab:  Solving for T, Initial residual = 0.003815220333, Final residual = 2.859232896e-19, No Iterations 1
 C1 1486.631339 C2 343.7597242

DILUPBiCGStab:  Solving for p, Initial residual = 8.390065559e-06, Final residual = 8.102439377e-22, No Iterations 1
PIMPLE: iteration 3
diagonal:  Solving for volumeFraction1, Initial residual = 0, Final residual = 0, No Iterations 0
max: volumeFraction1 1 min: 1

 max: rho1 1005.11843 min: 1000.511843

 max: rho2 118.9187904 min: 11.89187904

DILUPBiCGStab:  Solving for T, Initial residual = 0.003617982581, Final residual = 2.739650312e-19, No Iterations 1
 C1 1486.63118 C2 343.7596873

DILUPBiCGStab:  Solving for p, Initial residual = 8.531826843e-06, Final residual = 6.021986796e-22, No Iterations 1
PIMPLE: iteration 4
diagonal:  Solving for volumeFraction1, Initial residual = 0, Final residual = 0, No Iterations 0
max: volumeFraction1 1 min: 1

 max: rho1 1005.11843 min: 1000.511843

 max: rho2 118.9187904 min: 11.89187904

DILUPBiCGStab:  Solving for T, Initial residual = 0.003752684043, Final residual = 2.754862549e-19, No Iterations 1
 C1 1486.631168 C2 343.7596844

DILUPBiCGStab:  Solving for p, Initial residual = 9.11675199e-06, Final residual = 4.608837344e-22, No Iterations 1
PIMPLE: iteration 5
diagonal:  Solving for volumeFraction1, Initial residual = 0, Final residual = 0, No Iterations 0
max: volumeFraction1 1 min: 1

 max: rho1 1005.11843 min: 1000.511843

 max: rho2 118.9187904 min: 11.89187904

DILUPBiCGStab:  Solving for T, Initial residual = 0.004644955217, Final residual = 3.674932115e-19, No Iterations 1
 C1 1486.631164 C2 343.7596836

DILUPBiCGStab:  Solving for p, Initial residual = 8.725806186e-06, Final residual = 1.108967893e-21, No Iterations 1
ExecutionTime = 4.2 s  ClockTime = 5 s

Courant Number mean: 2.690686913e-05 max: 0.003196769723
Time = 3.1e-06

PIMPLE: iteration 1
diagonal:  Solving for volumeFraction1, Initial residual = 0, Final residual = 0, No Iterations 0
max: volumeFraction1 1 min: 1

 max: rho1 1005.11843 min: 1000.511843

 max: rho2 118.9187904 min: 11.89187904

DILUPBiCGStab:  Solving for T, Initial residual = 0.01830527078, Final residual = 1.762509748e-18, No Iterations 1
 C1 1486.631054 C2 343.7596581

DILUPBiCGStab:  Solving for p, Initial residual = 0.0001412548433, Final residual = 1.859065962e-20, No Iterations 1
PIMPLE: iteration 2
diagonal:  Solving for volumeFraction1, Initial residual = 0, Final residual = 0, No Iterations 0
max: volumeFraction1 1 min: 1

 max: rho1 1005.11843 min: 1000.511843

 max: rho2 118.9187904 min: 11.89187904

DILUPBiCGStab:  Solving for T, Initial residual = 0.00378242889, Final residual = 3.246496361e-19, No Iterations 1
 C1 1486.630386 C2 343.7595036

DILUPBiCGStab:  Solving for p, Initial residual = 8.409586739e-06, Final residual = 1.323889544e-21, No Iterations 1
PIMPLE: iteration 3
diagonal:  Solving for volumeFraction1, Initial residual = 0, Final residual = 0, No Iterations 0
max: volumeFraction1 1 min: 1

[...]

DILUPBiCGStab:  Solving for T, Initial residual = 0.0001602682968, Final residual = 3.699522381e-20, No Iterations 1
 C1 1486.609918 C2 343.7547708

DILUPBiCGStab:  Solving for p, Initial residual = 1.480011973e-05, Final residual = 7.813569241e-22, No Iterations 1
PIMPLE: iteration 3
diagonal:  Solving for volumeFraction1, Initial residual = 0, Final residual = 0, No Iterations 0
max: volumeFraction1 1 min: 1

 max: rho1 1005.11843 min: 1000.511843

 max: rho2 118.9187904 min: 11.89187904

DILUPBiCGStab:  Solving for T, Initial residual = 0.0002162115344, Final residual = 1.677648272e-20, No Iterations 1
 C1 1486.609918 C2 343.7547707

DILUPBiCGStab:  Solving for p, Initial residual = 1.632205959e-05, Final residual = 5.549236529e-21, No Iterations 1
PIMPLE: iteration 4
diagonal:  Solving for volumeFraction1, Initial residual = 0, Final residual = 0, No Iterations 0
max: volumeFraction1 1 min: 1

 max: rho1 1005.11843 min: 1000.511843

 max: rho2 118.9187904 min: 11.89187904

DILUPBiCGStab:  Solving for T, Initial residual = 0.0002219645879, Final residual = 1.956208122e-20, No Iterations 1
 C1 1486.609918 C2 343.7547707

DILUPBiCGStab:  Solving for p, Initial residual = 1.856935603e-05, Final residual = 3.083629425e-21, No Iterations 1
PIMPLE: iteration 5
diagonal:  Solving for volumeFraction1, Initial residual = 0, Final residual = 0, No Iterations 0
max: volumeFraction1 1 min: 1

 max: rho1 1005.11843 min: 1000.511843

 max: rho2 118.9187904 min: 11.89187904

DILUPBiCGStab:  Solving for T, Initial residual = 0.0002751169548, Final residual = 6.428014117e-20, No Iterations 1
 C1 1486.609917 C2 343.7547707

DILUPBiCGStab:  Solving for p, Initial residual = 1.987567184e-05, Final residual = 4.201654629e-21, No Iterations 1
ExecutionTime = 150.57 s  ClockTime = 186 s

Courant Number mean: 0.0008911960187 max: 0.003204082721
Time = 9.94e-05

PIMPLE: iteration 1
diagonal:  Solving for volumeFraction1, Initial residual = 0, Final residual = 0, No Iterations 0
max: volumeFraction1 1 min: 1

 max: rho1 1005.11843 min: 1000.511843

 max: rho2 118.9187904 min: 11.89187904

DILUPBiCGStab:  Solving for T, Initial residual = 0.0005507526618, Final residual = 4.152019645e-20, No Iterations 1
 C1 1486.609924 C2 343.7547722

DILUPBiCGStab:  Solving for p, Initial residual = 0.0001949442681, Final residual = 5.140007255e-20, No Iterations 1
PIMPLE: iteration 2
diagonal:  Solving for volumeFraction1, Initial residual = 0, Final residual = 0, No Iterations 0
max: volumeFraction1 1 min: 1

 max: rho1 1005.11843 min: 1000.511843

 max: rho2 118.9187904 min: 11.89187904

DILUPBiCGStab:  Solving for T, Initial residual = 0.0001604561043, Final residual = 3.44375402e-20, No Iterations 1
 C1 1486.609923 C2 343.7547719

DILUPBiCGStab:  Solving for p, Initial residual = 1.491164499e-05, Final residual = 7.737051129e-22, No Iterations 1
PIMPLE: iteration 3
diagonal:  Solving for volumeFraction1, Initial residual = 0, Final residual = 0, No Iterations 0
max: volumeFraction1 1 min: 1

 max: rho1 1005.11843 min: 1000.511843

 max: rho2 118.9187904 min: 11.89187904

DILUPBiCGStab:  Solving for T, Initial residual = 0.0002161895264, Final residual = 1.928642345e-20, No Iterations 1
 C1 1486.609922 C2 343.7547718

DILUPBiCGStab:  Solving for p, Initial residual = 1.629418091e-05, Final residual = 9.720636655e-22, No Iterations 1
PIMPLE: iteration 4
diagonal:  Solving for volumeFraction1, Initial residual = 0, Final residual = 0, No Iterations 0
max: volumeFraction1 1 min: 1

 max: rho1 1005.11843 min: 1000.511843

 max: rho2 118.9187904 min: 11.89187904

DILUPBiCGStab:  Solving for T, Initial residual = 0.0002217046136, Final residual = 1.761989479e-20, No Iterations 1
 C1 1486.609922 C2 343.7547718

DILUPBiCGStab:  Solving for p, Initial residual = 1.81522948e-05, Final residual = 8.448527829e-22, No Iterations 1
PIMPLE: iteration 5
diagonal:  Solving for volumeFraction1, Initial residual = 0, Final residual = 0, No Iterations 0
max: volumeFraction1 1 min: 1

 max: rho1 1005.11843 min: 1000.511843

 max: rho2 118.9187904 min: 11.89187904

DILUPBiCGStab:  Solving for T, Initial residual = 0.0002733917003, Final residual = 2.135939103e-20, No Iterations 1
 C1 1486.609922 C2 343.7547718

DILUPBiCGStab:  Solving for p, Initial residual = 1.900564538e-05, Final residual = 1.119431464e-21, No Iterations 1
ExecutionTime = 150.66 s  ClockTime = 186 s

Courant Number mean: 0.0008920937246 max: 0.003204080919
Time = 9.95e-05

PIMPLE: iteration 1
diagonal:  Solving for volumeFraction1, Initial residual = 0, Final residual = 0, No Iterations 0
max: volumeFraction1 1 min: 1

 max: rho1 1005.11843 min: 1000.511843

 max: rho2 118.9187904 min: 11.89187904

DILUPBiCGStab:  Solving for T, Initial residual = 0.0005502465658, Final residual = 5.185499847e-20, No Iterations 1
 C1 1486.609927 C2 343.7547729

DILUPBiCGStab:  Solving for p, Initial residual = 0.0001950145385, Final residual = 2.96206547e-20, No Iterations 1
PIMPLE: iteration 2
diagonal:  Solving for volumeFraction1, Initial residual = 0, Final residual = 0, No Iterations 0
max: volumeFraction1 1 min: 1

 max: rho1 1005.11843 min: 1000.511843

 max: rho2 118.9187904 min: 11.89187904

DILUPBiCGStab:  Solving for T, Initial residual = 0.0001574875969, Final residual = 3.523394049e-20, No Iterations 1
 C1 1486.609925 C2 343.7547724

DILUPBiCGStab:  Solving for p, Initial residual = 1.373148395e-05, Final residual = 2.139461933e-21, No Iterations 1
PIMPLE: iteration 3
diagonal:  Solving for volumeFraction1, Initial residual = 0, Final residual = 0, No Iterations 0
max: volumeFraction1 1 min: 1

 max: rho1 1005.11843 min: 1000.511843

 max: rho2 118.9187904 min: 11.89187904

DILUPBiCGStab:  Solving for T, Initial residual = 0.0002107785087, Final residual = 1.875324918e-20, No Iterations 1
 C1 1486.609925 C2 343.7547723

DILUPBiCGStab:  Solving for p, Initial residual = 1.474834948e-05, Final residual = 9.326577501e-22, No Iterations 1
PIMPLE: iteration 4
diagonal:  Solving for volumeFraction1, Initial residual = 0, Final residual = 0, No Iterations 0
max: volumeFraction1 1 min: 1

 max: rho1 1005.11843 min: 1000.511843

 max: rho2 118.9187904 min: 11.89187904

DILUPBiCGStab:  Solving for T, Initial residual = 0.0002155440917, Final residual = 2.171092201e-20, No Iterations 1
 C1 1486.609924 C2 343.7547723

DILUPBiCGStab:  Solving for p, Initial residual = 1.632691517e-05, Final residual = 9.115116019e-22, No Iterations 1
PIMPLE: iteration 5
diagonal:  Solving for volumeFraction1, Initial residual = 0, Final residual = 0, No Iterations 0
max: volumeFraction1 1 min: 1

 max: rho1 1005.11843 min: 1000.511843

 max: rho2 118.9187904 min: 11.89187904

DILUPBiCGStab:  Solving for T, Initial residual = 0.0002659474416, Final residual = 5.677447398e-20, No Iterations 1
 C1 1486.609924 C2 343.7547723

DILUPBiCGStab:  Solving for p, Initial residual = 1.717225015e-05, Final residual = 9.681619927e-22, No Iterations 1
ExecutionTime = 150.75 s  ClockTime = 186 s

Courant Number mean: 0.0008929914098 max: 0.003204078397
Time = 9.96e-05

PIMPLE: iteration 1
diagonal:  Solving for volumeFraction1, Initial residual = 0, Final residual = 0, No Iterations 0
max: volumeFraction1 1 min: 1

 max: rho1 1005.11843 min: 1000.511843

 max: rho2 118.9187904 min: 11.89187904

DILUPBiCGStab:  Solving for T, Initial residual = 0.0005496263181, Final residual = 1.196780615e-19, No Iterations 1
 C1 1486.609927 C2 343.7547728

DILUPBiCGStab:  Solving for p, Initial residual = 0.0001950770835, Final residual = 3.301227727e-20, No Iterations 1
PIMPLE: iteration 2
diagonal:  Solving for volumeFraction1, Initial residual = 0, Final residual = 0, No Iterations 0
max: volumeFraction1 1 min: 1

 max: rho1 1005.11843 min: 1000.511843

 max: rho2 118.9187904 min: 11.89187904

DILUPBiCGStab:  Solving for T, Initial residual = 0.0001509581653, Final residual = 1.409934203e-20, No Iterations 1
 C1 1486.609925 C2 343.7547724

DILUPBiCGStab:  Solving for p, Initial residual = 1.230829034e-05, Final residual = 8.649392591e-22, No Iterations 1
PIMPLE: iteration 3
diagonal:  Solving for volumeFraction1, Initial residual = 0, Final residual = 0, No Iterations 0
max: volumeFraction1 1 min: 1

 max: rho1 1005.11843 min: 1000.511843

 max: rho2 118.9187904 min: 11.89187904

DILUPBiCGStab:  Solving for T, Initial residual = 0.0002018215271, Final residual = 4.340025446e-20, No Iterations 1
 C1 1486.609924 C2 343.7547723

DILUPBiCGStab:  Solving for p, Initial residual = 1.30478319e-05, Final residual = 2.075007892e-21, No Iterations 1
PIMPLE: iteration 4
diagonal:  Solving for volumeFraction1, Initial residual = 0, Final residual = 0, No Iterations 0
max: volumeFraction1 1 min: 1

 max: rho1 1005.11843 min: 1000.511843

 max: rho2 118.9187904 min: 11.89187904

DILUPBiCGStab:  Solving for T, Initial residual = 0.00020728652, Final residual = 1.476231339e-20, No Iterations 1
 C1 1486.609924 C2 343.7547723

DILUPBiCGStab:  Solving for p, Initial residual = 1.398615031e-05, Final residual = 7.532670943e-22, No Iterations 1
PIMPLE: iteration 5
diagonal:  Solving for volumeFraction1, Initial residual = 0, Final residual = 0, No Iterations 0
max: volumeFraction1 1 min: 1

 max: rho1 1005.11843 min: 1000.511843

 max: rho2 118.9187904 min: 11.89187904

DILUPBiCGStab:  Solving for T, Initial residual = 0.0002550524245, Final residual = 2.154558282e-20, No Iterations 1
 C1 1486.609924 C2 343.7547723

DILUPBiCGStab:  Solving for p, Initial residual = 1.411359933e-05, Final residual = 9.484249895e-22, No Iterations 1
ExecutionTime = 150.84 s  ClockTime = 186 s

Courant Number mean: 0.0008938890816 max: 0.003204072318
Time = 9.97e-05

PIMPLE: iteration 1
diagonal:  Solving for volumeFraction1, Initial residual = 0, Final residual = 0, No Iterations 0
max: volumeFraction1 1 min: 1

 max: rho1 1005.11843 min: 1000.511843

 max: rho2 118.9187904 min: 11.89187904

DILUPBiCGStab:  Solving for T, Initial residual = 0.0005491228548, Final residual = 5.375608571e-20, No Iterations 1
 C1 1486.609925 C2 343.7547724

DILUPBiCGStab:  Solving for p, Initial residual = 0.0001951437381, Final residual = 3.171634979e-20, No Iterations 1
PIMPLE: iteration 2
diagonal:  Solving for volumeFraction1, Initial residual = 0, Final residual = 0, No Iterations 0
max: volumeFraction1 1 min: 1

 max: rho1 1005.11843 min: 1000.511843

 max: rho2 118.9187904 min: 11.89187904

DILUPBiCGStab:  Solving for T, Initial residual = 0.0001405481279, Final residual = 6.105328203e-20, No Iterations 1
 C1 1486.609923 C2 343.754772

DILUPBiCGStab:  Solving for p, Initial residual = 1.06429917e-05, Final residual = 7.053866527e-22, No Iterations 1
PIMPLE: iteration 3
diagonal:  Solving for volumeFraction1, Initial residual = 0, Final residual = 0, No Iterations 0
max: volumeFraction1 1 min: 1

 max: rho1 1005.11843 min: 1000.511843

 max: rho2 118.9187904 min: 11.89187904

DILUPBiCGStab:  Solving for T, Initial residual = 0.0001886575357, Final residual = 3.976323271e-20, No Iterations 1
 C1 1486.609923 C2 343.7547719

DILUPBiCGStab:  Solving for p, Initial residual = 1.145520604e-05, Final residual = 7.874834365e-22, No Iterations 1
PIMPLE: iteration 4
diagonal:  Solving for volumeFraction1, Initial residual = 0, Final residual = 0, No Iterations 0
max: volumeFraction1 1 min: 1

 max: rho1 1005.11843 min: 1000.511843

 max: rho2 118.9187904 min: 11.89187904

DILUPBiCGStab:  Solving for T, Initial residual = 0.0001957568825, Final residual = 1.692835677e-20, No Iterations 1
 C1 1486.609923 C2 343.7547719

DILUPBiCGStab:  Solving for p, Initial residual = 1.267631558e-05, Final residual = 8.756286323e-22, No Iterations 1
PIMPLE: iteration 5
diagonal:  Solving for volumeFraction1, Initial residual = 0, Final residual = 0, No Iterations 0
max: volumeFraction1 1 min: 1

 max: rho1 1005.11843 min: 1000.511843

 max: rho2 118.9187904 min: 11.89187904

DILUPBiCGStab:  Solving for T, Initial residual = 0.0002408571188, Final residual = 2.067907375e-20, No Iterations 1
 C1 1486.609922 C2 343.7547718

DILUPBiCGStab:  Solving for p, Initial residual = 1.300652739e-05, Final residual = 7.522211312e-22, No Iterations 1
ExecutionTime = 150.94 s  ClockTime = 186 s

Courant Number mean: 0.0008947867496 max: 0.003204065906
Time = 9.98e-05

PIMPLE: iteration 1
diagonal:  Solving for volumeFraction1, Initial residual = 0, Final residual = 0, No Iterations 0
max: volumeFraction1 1 min: 1

 max: rho1 1005.11843 min: 1000.511843

 max: rho2 118.9187904 min: 11.89187904

DILUPBiCGStab:  Solving for T, Initial residual = 0.0005484941136, Final residual = 1.148414224e-19, No Iterations 1
 C1 1486.609922 C2 343.7547716

DILUPBiCGStab:  Solving for p, Initial residual = 0.0001952080958, Final residual = 5.072842665e-20, No Iterations 1
PIMPLE: iteration 2
diagonal:  Solving for volumeFraction1, Initial residual = 0, Final residual = 0, No Iterations 0
max: volumeFraction1 1 min: 1

 max: rho1 1005.11843 min: 1000.511843

 max: rho2 118.9187904 min: 11.89187904

DILUPBiCGStab:  Solving for T, Initial residual = 0.0001337714697, Final residual = 1.327292675e-20, No Iterations 1
 C1 1486.60992 C2 343.7547712

DILUPBiCGStab:  Solving for p, Initial residual = 1.09961429e-05, Final residual = 6.815022834e-22, No Iterations 1
PIMPLE: iteration 3
diagonal:  Solving for volumeFraction1, Initial residual = 0, Final residual = 0, No Iterations 0
max: volumeFraction1 1 min: 1

 max: rho1 1005.11843 min: 1000.511843

 max: rho2 118.9187904 min: 11.89187904

DILUPBiCGStab:  Solving for T, Initial residual = 0.0001815501384, Final residual = 1.785610269e-20, No Iterations 1
 C1 1486.609919 C2 343.7547711

DILUPBiCGStab:  Solving for p, Initial residual = 1.175822262e-05, Final residual = 7.835658479e-22, No Iterations 1
PIMPLE: iteration 4
diagonal:  Solving for volumeFraction1, Initial residual = 0, Final residual = 0, No Iterations 0
max: volumeFraction1 1 min: 1

 max: rho1 1005.11843 min: 1000.511843

 max: rho2 118.9187904 min: 11.89187904

DILUPBiCGStab:  Solving for T, Initial residual = 0.0001914320539, Final residual = 4.431942825e-20, No Iterations 1
 C1 1486.609919 C2 343.7547711

DILUPBiCGStab:  Solving for p, Initial residual = 1.304513151e-05, Final residual = 2.160299062e-21, No Iterations 1
PIMPLE: iteration 5
diagonal:  Solving for volumeFraction1, Initial residual = 0, Final residual = 0, No Iterations 0
max: volumeFraction1 1 min: 1

 max: rho1 1005.11843 min: 1000.511843

 max: rho2 118.9187904 min: 11.89187904

DILUPBiCGStab:  Solving for T, Initial residual = 0.0002387360232, Final residual = 2.385884853e-20, No Iterations 1
 C1 1486.609919 C2 343.7547711

DILUPBiCGStab:  Solving for p, Initial residual = 1.364687466e-05, Final residual = 2.772708733e-21, No Iterations 1
ExecutionTime = 151.01 s  ClockTime = 186 s

Courant Number mean: 0.000895684412 max: 0.003204055714
Time = 9.99e-05

PIMPLE: iteration 1
diagonal:  Solving for volumeFraction1, Initial residual = 0, Final residual = 0, No Iterations 0
max: volumeFraction1 1 min: 1

 max: rho1 1005.11843 min: 1000.511843

 max: rho2 118.9187904 min: 11.89187904

DILUPBiCGStab:  Solving for T, Initial residual = 0.0005480053862, Final residual = 5.347880618e-20, No Iterations 1
 C1 1486.609916 C2 343.7547704

DILUPBiCGStab:  Solving for p, Initial residual = 0.0001952821924, Final residual = 3.245649464e-20, No Iterations 1
PIMPLE: iteration 2
diagonal:  Solving for volumeFraction1, Initial residual = 0, Final residual = 0, No Iterations 0
max: volumeFraction1 1 min: 1

 max: rho1 1005.11843 min: 1000.511843

 max: rho2 118.9187904 min: 11.89187904

DILUPBiCGStab:  Solving for T, Initial residual = 0.0001386098156, Final residual = 1.210425133e-20, No Iterations 1
 C1 1486.609915 C2 343.75477

DILUPBiCGStab:  Solving for p, Initial residual = 1.162166708e-05, Final residual = 8.183803783e-22, No Iterations 1
PIMPLE: iteration 3
diagonal:  Solving for volumeFraction1, Initial residual = 0, Final residual = 0, No Iterations 0
max: volumeFraction1 1 min: 1

 max: rho1 1005.11843 min: 1000.511843

 max: rho2 118.9187904 min: 11.89187904

DILUPBiCGStab:  Solving for T, Initial residual = 0.0001881544016, Final residual = 1.551964421e-20, No Iterations 1
 C1 1486.609914 C2 343.75477

DILUPBiCGStab:  Solving for p, Initial residual = 1.242038031e-05, Final residual = 9.037123317e-22, No Iterations 1
PIMPLE: iteration 4
diagonal:  Solving for volumeFraction1, Initial residual = 0, Final residual = 0, No Iterations 0
max: volumeFraction1 1 min: 1

 max: rho1 1005.11843 min: 1000.511843

 max: rho2 118.9187904 min: 11.89187904

DILUPBiCGStab:  Solving for T, Initial residual = 0.0001987549703, Final residual = 2.002401203e-20, No Iterations 1
 C1 1486.609914 C2 343.75477

DILUPBiCGStab:  Solving for p, Initial residual = 1.385192276e-05, Final residual = 8.126037863e-22, No Iterations 1
PIMPLE: iteration 5
diagonal:  Solving for volumeFraction1, Initial residual = 0, Final residual = 0, No Iterations 0
max: volumeFraction1 1 min: 1

 max: rho1 1005.11843 min: 1000.511843

 max: rho2 118.9187904 min: 11.89187904

DILUPBiCGStab:  Solving for T, Initial residual = 0.0002487017983, Final residual = 2.321527465e-20, No Iterations 1
 C1 1486.609914 C2 343.75477

DILUPBiCGStab:  Solving for p, Initial residual = 1.455074276e-05, Final residual = 1.024335195e-21, No Iterations 1
ExecutionTime = 151.12 s  ClockTime = 187 s

Courant Number mean: 0.0008965820864 max: 0.003204045314
Time = 0.0001

PIMPLE: iteration 1
diagonal:  Solving for volumeFraction1, Initial residual = 0, Final residual = 0, No Iterations 0
max: volumeFraction1 1 min: 1

 max: rho1 1005.11843 min: 1000.511843

 max: rho2 118.9187904 min: 11.89187904

DILUPBiCGStab:  Solving for T, Initial residual = 0.0005473805277, Final residual = 5.768043055e-20, No Iterations 1
 C1 1486.609909 C2 343.7547688

DILUPBiCGStab:  Solving for p, Initial residual = 0.0001953476497, Final residual = 4.335945203e-20, No Iterations 1
PIMPLE: iteration 2
diagonal:  Solving for volumeFraction1, Initial residual = 0, Final residual = 0, No Iterations 0
max: volumeFraction1 1 min: 1

 max: rho1 1005.11843 min: 1000.511843

 max: rho2 118.9187904 min: 11.89187904

DILUPBiCGStab:  Solving for T, Initial residual = 0.0001456315809, Final residual = 1.213793112e-20, No Iterations 1
 C1 1486.609907 C2 343.7547683

DILUPBiCGStab:  Solving for p, Initial residual = 1.19931565e-05, Final residual = 5.748131119e-22, No Iterations 1
PIMPLE: iteration 3
diagonal:  Solving for volumeFraction1, Initial residual = 0, Final residual = 0, No Iterations 0
max: volumeFraction1 1 min: 1

 max: rho1 1005.11843 min: 1000.511843

 max: rho2 118.9187904 min: 11.89187904

DILUPBiCGStab:  Solving for T, Initial residual = 0.0001975700447, Final residual = 4.42052472e-20, No Iterations 1
 C1 1486.609907 C2 343.7547683

DILUPBiCGStab:  Solving for p, Initial residual = 1.288530665e-05, Final residual = 2.627570973e-21, No Iterations 1
PIMPLE: iteration 4
diagonal:  Solving for volumeFraction1, Initial residual = 0, Final residual = 0, No Iterations 0
max: volumeFraction1 1 min: 1

 max: rho1 1005.11843 min: 1000.511843

 max: rho2 118.9187904 min: 11.89187904

DILUPBiCGStab:  Solving for T, Initial residual = 0.0002062811861, Final residual = 3.645782531e-20, No Iterations 1
 C1 1486.609907 C2 343.7547683

DILUPBiCGStab:  Solving for p, Initial residual = 1.436258556e-05, Final residual = 5.27954544e-22, No Iterations 1
PIMPLE: iteration 5
diagonal:  Solving for volumeFraction1, Initial residual = 0, Final residual = 0, No Iterations 0
max: volumeFraction1 1 min: 1

 max: rho1 1005.11843 min: 1000.511843

 max: rho2 118.9187904 min: 11.89187904

DILUPBiCGStab:  Solving for T, Initial residual = 0.0002569311651, Final residual = 2.43664882e-20, No Iterations 1
 C1 1486.609907 C2 343.7547683

DILUPBiCGStab:  Solving for p, Initial residual = 1.490555557e-05, Final residual = 6.877209341e-22, No Iterations 1
ExecutionTime = 151.27 s  ClockTime = 187 s

End

