/*---------------------------------------------------------------------------*\
| =========                 |                                                 |
| \\      /  F ield         | OpenFOAM: The Open Source CFD Toolbox           |
|  \\    /   O peration     | Version:  3.0.1                                 |
|   \\  /    A nd           | Web:      www.OpenFOAM.org                      |
|    \\/     M anipulation  |                                                 |
\*---------------------------------------------------------------------------*/
Build  : 3.0.1-d8a290b55d28
Exec   : pisoCentralFoam
Date   : Oct 13 2016
Time   : 14:07:30
Host   : "bl022.unicluster.ru"
PID    : 7141
Case   : /lustre/unicluster/home/matvey.kraposhin/run/Unicfdlab/github-hybridCentralSolvers/Tutorials-3.0.1/case-subsonic/Std-2
nProcs : 1
sigFpe : Enabling floating point exception trapping (FOAM_SIGFPE).
fileModificationChecking : Monitoring run-time modified files using timeStampMaster
allowSystemOperations : Allowing user-supplied system call operations

// * * * * * * * * * * * * * * * * * * * * * * * * * * * * * * * * * * * * * //
Create time

Create mesh for time = 0


PIMPLE: Operating solver in PISO mode

Reading thermophysical properties

Selecting thermodynamics package 
{
    type            hePsiThermo;
    mixture         pureMixture;
    transport       const;
    thermo          hConst;
    equationOfState perfectGas;
    specie          specie;
    energy          sensibleEnthalpy;
}

Reading field U

Creating field kinetic energy K

Selecting finite volume kappaFunction type standardMachToAcCourantRatio
Creating turbulence model

Selecting turbulence model type laminar
No finite volume options present

No MRF models present

Marking cells with bad quality to limit pressure gradient
max/min FaceAcCourant: 3.33333e-19/1.66667e-19
max/min Maf: 0/0
max/min kappa: 0/0
Courant Number max : 0 velocity magnitude: 0

Starting time loop

Mean and max Acoustic Courant Numbers = 1.66667e-19 3.33333e-19
Courant Number max : 0 velocity magnitude: 0
Time = 1e-06

diagonal:  Solving for rho, Initial residual = 0, Final residual = 0, No Iterations 0
rho max/min : 0.83124 / 0.710718
DILUPBiCG:  Solving for h, Initial residual = 1, Final residual = 5.25674e-18, No Iterations 1
max/min T: 289/289
DILUPBiCG:  Solving for p, Initial residual = 0.00129425, Final residual = 2.2537e-12, No Iterations 3
max(U): (2.29558 0.00364084 2.13188e-32)
max/min p: 68970.3/58968.2
diagonal:  Solving for rho, Initial residual = 0, Final residual = 0, No Iterations 0
rho max/min : 0.831243 / 0.710697
time step continuity errors : sum local = 3.52887e-13, global = 1.02746e-13, cumulative = 1.02746e-13
max/min FaceAcCourant: 0.111754/0.0284041
max/min Maf: 0.0805873/0
max/min kappa: 1/0
ExecutionTime = 0.1 s  ClockTime = 0 s

Mean and max Acoustic Courant Numbers = 0.0472017 0.111754
Courant Number max : 0.0180119 velocity magnitude: 27.4681
Time = 2e-06

diagonal:  Solving for rho, Initial residual = 0, Final residual = 0, No Iterations 0
rho max/min : 0.831247 / 0.710675
DILUPBiCG:  Solving for h, Initial residual = 1, Final residual = 1.09946e-13, No Iterations 2
max/min T: 289.879/288.216
DILUPBiCG:  Solving for p, Initial residual = 0.00149812, Final residual = 5.17048e-13, No Iterations 3
max(U): (4.47829 0.00748704 2.13188e-32)
max/min p: 68970.1/58968.7
diagonal:  Solving for rho, Initial residual = 0, Final residual = 0, No Iterations 0
rho max/min : 0.831243 / 0.710697
time step continuity errors : sum local = 8.08207e-14, global = -2.60528e-15, cumulative = 1.00141e-13
max/min FaceAcCourant: 0.111754/0.0283655
max/min Maf: 0.0710404/0
max/min kappa: 1/0
ExecutionTime = 0.12 s  ClockTime = 0 s

Mean and max Acoustic Courant Numbers = 0.047209 0.111754
Courant Number max : 0.0158786 velocity magnitude: 24.2148
Time = 3e-06

diagonal:  Solving for rho, Initial residual = 0, Final residual = 0, No Iterations 0
rho max/min : 0.83124 / 0.710708
DILUPBiCG:  Solving for h, Initial residual = 0.307462, Final residual = 3.62317e-14, No Iterations 2
max/min T: 290.582/287.551
DILUPBiCG:  Solving for p, Initial residual = 0.0013256, Final residual = 3.64712e-10, No Iterations 2
max(U): (6.53724 0.0108172 2.13188e-32)
max/min p: 68970/58970
diagonal:  Solving for rho, Initial residual = 0, Final residual = 0, No Iterations 0
rho max/min : 0.83124 / 0.710708
time step continuity errors : sum local = 5.67391e-11, global = -6.95039e-12, cumulative = -6.85025e-12
max/min FaceAcCourant: 0.111754/0.0283328
max/min Maf: 0.0630519/0
max/min kappa: 1/0
ExecutionTime = 0.13 s  ClockTime = 0 s

Mean and max Acoustic Courant Numbers = 0.0472158 0.111754
Courant Number max : 0.0140931 velocity magnitude: 21.492
Time = 4e-06

diagonal:  Solving for rho, Initial residual = 0, Final residual = 0, No Iterations 0
rho max/min : 0.83124 / 0.710718
DILUPBiCG:  Solving for h, Initial residual = 0.155159, Final residual = 2.62632e-14, No Iterations 2
max/min T: 291.047/287.068
DILUPBiCG:  Solving for p, Initial residual = 0.00116198, Final residual = 3.12857e-10, No Iterations 2
max(U): (8.43305 0.0136214 2.13188e-32)
max/min p: 68970/58970
diagonal:  Solving for rho, Initial residual = 0, Final residual = 0, No Iterations 0
rho max/min : 0.83124 / 0.710718
time step continuity errors : sum local = 4.85409e-11, global = -9.54995e-12, cumulative = -1.64002e-11
max/min FaceAcCourant: 0.111754/0.028309
max/min Maf: 0.058105/0
max/min kappa: 1/0
ExecutionTime = 0.14 s  ClockTime = 0 s

Mean and max Acoustic Courant Numbers = 0.0472222 0.111754
Courant Number max : 0.012987 velocity magnitude: 19.8051
Time = 5e-06

diagonal:  Solving for rho, Initial residual = 0, Final residual = 0, No Iterations 0
rho max/min : 0.83124 / 0.710718
DILUPBiCG:  Solving for h, Initial residual = 0.09419, Final residual = 1.29723e-14, No Iterations 2
max/min T: 291.312/286.747
DILUPBiCG:  Solving for p, Initial residual = 0.00105242, Final residual = 2.89002e-10, No Iterations 2
max(U): (10.1396 0.015761 2.13188e-32)
max/min p: 68970/58970
diagonal:  Solving for rho, Initial residual = 0, Final residual = 0, No Iterations 0
rho max/min : 0.83124 / 0.710718
time step continuity errors : sum local = 4.47336e-11, global = -7.20064e-12, cumulative = -2.36008e-11
max/min FaceAcCourant: 0.111754/0.0282932
max/min Maf: 0.0555786/0
max/min kappa: 0.95884/0
ExecutionTime = 0.15 s  ClockTime = 0 s

Mean and max Acoustic Courant Numbers = 0.0472282 0.111754
Courant Number max : 0.0124215 velocity magnitude: 18.9428
Time = 6e-06

diagonal:  Solving for rho, Initial residual = 0, Final residual = 0, No Iterations 0
rho max/min : 0.83124 / 0.710718
DILUPBiCG:  Solving for h, Initial residual = 0.0672005, Final residual = 9.49505e-15, No Iterations 2
max/min T: 291.442/286.54
DILUPBiCG:  Solving for p, Initial residual = 0.000997282, Final residual = 2.32621e-10, No Iterations 2
max(U): (11.6449 0.0172648 2.13188e-32)
max/min p: 68970/58970
diagonal:  Solving for rho, Initial residual = 0, Final residual = 0, No Iterations 0
rho max/min : 0.83124 / 0.710718
time step continuity errors : sum local = 3.59288e-11, global = -3.92841e-12, cumulative = -2.75292e-11
max/min FaceAcCourant: 0.111754/0.0282829
max/min Maf: 0.054708/0
max/min kappa: 0.940679/0
ExecutionTime = 0.16 s  ClockTime = 0 s

Mean and max Acoustic Courant Numbers = 0.0472336 0.111754
Courant Number max : 0.0122258 velocity magnitude: 18.6444
Time = 7e-06

diagonal:  Solving for rho, Initial residual = 0, Final residual = 0, No Iterations 0
rho max/min : 0.83124 / 0.710718
DILUPBiCG:  Solving for h, Initial residual = 0.0536439, Final residual = 6.71684e-15, No Iterations 2
max/min T: 291.482/286.414
DILUPBiCG:  Solving for p, Initial residual = 0.000975407, Final residual = 1.87056e-10, No Iterations 2
max(U): (12.9477 0.0182019 2.13188e-32)
max/min p: 68970/58970
diagonal:  Solving for rho, Initial residual = 0, Final residual = 0, No Iterations 0
rho max/min : 0.83124 / 0.710718
time step continuity errors : sum local = 2.8832e-11, global = 2.84511e-13, cumulative = -2.72447e-11
max/min FaceAcCourant: 0.111754/0.0282767
max/min Maf: 0.0547484/0
max/min kappa: 0.938718/0
ExecutionTime = 0.17 s  ClockTime = 0 s

Mean and max Acoustic Courant Numbers = 0.0472385 0.111754
Courant Number max : 0.0122337 velocity magnitude: 18.6563
Time = 8e-06

diagonal:  Solving for rho, Initial residual = 0, Final residual = 0, No Iterations 0
rho max/min : 0.83124 / 0.710718
DILUPBiCG:  Solving for h, Initial residual = 0.0476703, Final residual = 2.40598e-14, No Iterations 2
max/min T: 291.463/286.346
DILUPBiCG:  Solving for p, Initial residual = 0.0009728, Final residual = 1.68206e-10, No Iterations 2
max(U): (14.0571 0.0186593 2.13188e-32)
max/min p: 68970/58970
diagonal:  Solving for rho, Initial residual = 0, Final residual = 0, No Iterations 0
rho max/min : 0.83124 / 0.710718
time step continuity errors : sum local = 2.58746e-11, global = 2.62451e-12, cumulative = -2.46202e-11
max/min FaceAcCourant: 0.111754/0.0282734
max/min Maf: 0.0552729/0
max/min kappa: 0.945372/0
ExecutionTime = 0.17 s  ClockTime = 0 s

Mean and max Acoustic Courant Numbers = 0.0472429 0.111754
Courant Number max : 0.0123497 velocity magnitude: 18.8334
Time = 9e-06

diagonal:  Solving for rho, Initial residual = 0, Final residual = 0, No Iterations 0
rho max/min : 0.83124 / 0.710718
DILUPBiCG:  Solving for h, Initial residual = 0.0486342, Final residual = 2.42453e-14, No Iterations 2
max/min T: 291.407/286.318
DILUPBiCG:  Solving for p, Initial residual = 0.000981002, Final residual = 1.89001e-10, No Iterations 2
max(U): (14.9896 0.0187338 2.13188e-32)
max/min p: 68970/58970
diagonal:  Solving for rho, Initial residual = 0, Final residual = 0, No Iterations 0
rho max/min : 0.83124 / 0.710718
time step continuity errors : sum local = 2.90154e-11, global = -7.20583e-13, cumulative = -2.53408e-11
max/min FaceAcCourant: 0.111754/0.028272
max/min Maf: 0.0560371/0
max/min kappa: 0.956434/0
ExecutionTime = 0.18 s  ClockTime = 0 s

Mean and max Acoustic Courant Numbers = 0.0472468 0.111754
Courant Number max : 0.0125194 velocity magnitude: 19.092
Time = 1e-05

diagonal:  Solving for rho, Initial residual = 0, Final residual = 0, No Iterations 0
rho max/min : 0.83124 / 0.710718
DILUPBiCG:  Solving for h, Initial residual = 0.0490542, Final residual = 3.96405e-14, No Iterations 2
max/min T: 291.325/286.317
DILUPBiCG:  Solving for p, Initial residual = 0.000995016, Final residual = 1.89446e-10, No Iterations 2
max(U): (15.7668 0.018459 2.13188e-32)
max/min p: 68970/58970
diagonal:  Solving for rho, Initial residual = 0, Final residual = 0, No Iterations 0
rho max/min : 0.83124 / 0.710718
time step continuity errors : sum local = 2.90254e-11, global = 3.52397e-12, cumulative = -2.18168e-11
max/min FaceAcCourant: 0.111754/0.028272
max/min Maf: 0.0568755/0
max/min kappa: 0.969054/0
ExecutionTime = 0.19 s  ClockTime = 0 s

Mean and max Acoustic Courant Numbers = 0.0472505 0.111754
Courant Number max : 0.0127057 velocity magnitude: 19.3762
Time = 1.1e-05

diagonal:  Solving for rho, Initial residual = 0, Final residual = 0, No Iterations 0
rho max/min : 0.83124 / 0.710718
DILUPBiCG:  Solving for h, Initial residual = 0.050837, Final residual = 4.10176e-14, No Iterations 2
max/min T: 291.237/286.336
DILUPBiCG:  Solving for p, Initial residual = 0.00101132, Final residual = 2.92554e-10, No Iterations 2
max(U): (16.4119 0.0179146 2.13188e-32)
max/min p: 68970/58970
diagonal:  Solving for rho, Initial residual = 0, Final residual = 0, No Iterations 0
rho max/min : 0.83124 / 0.710718
time step continuity errors : sum local = 4.47318e-11, global = 8.10936e-13, cumulative = -2.10059e-11
max/min FaceAcCourant: 0.111754/0.0282729
max/min Maf: 0.057682/0
max/min kappa: 0.9814/0
ExecutionTime = 0.2 s  ClockTime = 0 s

Mean and max Acoustic Courant Numbers = 0.0472541 0.111754
Courant Number max : 0.0128848 velocity magnitude: 19.6493
Time = 1.2e-05

diagonal:  Solving for rho, Initial residual = 0, Final residual = 0, No Iterations 0
rho max/min : 0.83124 / 0.710718
DILUPBiCG:  Solving for h, Initial residual = 0.0515217, Final residual = 3.8274e-14, No Iterations 2
max/min T: 291.619/286.367
DILUPBiCG:  Solving for p, Initial residual = 0.00101904, Final residual = 4.52879e-10, No Iterations 2
max(U): (16.9508 0.0171338 2.13188e-32)
max/min p: 68970/58970
diagonal:  Solving for rho, Initial residual = 0, Final residual = 0, No Iterations 0
rho max/min : 0.83124 / 0.710718
time step continuity errors : sum local = 6.91042e-11, global = 4.05667e-12, cumulative = -1.69492e-11
max/min FaceAcCourant: 0.111754/0.0282745
max/min Maf: 0.0576733/0
max/min kappa: 0.980874/0
ExecutionTime = 0.21 s  ClockTime = 0 s

Mean and max Acoustic Courant Numbers = 0.0472574 0.111754
Courant Number max : 0.0128772 velocity magnitude: 19.6377
Time = 1.3e-05

diagonal:  Solving for rho, Initial residual = 0, Final residual = 0, No Iterations 0
rho max/min : 0.83124 / 0.710718
DILUPBiCG:  Solving for h, Initial residual = 0.0501481, Final residual = 2.97501e-14, No Iterations 2
max/min T: 291.989/286.394
DILUPBiCG:  Solving for p, Initial residual = 0.00103871, Final residual = 5.71109e-10, No Iterations 2
max(U): (17.4038 0.0162462 2.13188e-32)
max/min p: 68970/58970
diagonal:  Solving for rho, Initial residual = 0, Final residual = 0, No Iterations 0
rho max/min : 0.83124 / 0.710718
time step continuity errors : sum local = 8.69648e-11, global = 8.7208e-12, cumulative = -8.22843e-12
max/min FaceAcCourant: 0.111754/0.0282758
max/min Maf: 0.0578745/0
max/min kappa: 0.983892/0
ExecutionTime = 0.22 s  ClockTime = 0 s

Mean and max Acoustic Courant Numbers = 0.047261 0.111754
Courant Number max : 0.0129174 velocity magnitude: 19.6991
Time = 1.4e-05

diagonal:  Solving for rho, Initial residual = 0, Final residual = 0, No Iterations 0
rho max/min : 0.83124 / 0.710718
DILUPBiCG:  Solving for h, Initial residual = 0.0480969, Final residual = 2.46484e-14, No Iterations 2
max/min T: 292.333/286.1
DILUPBiCG:  Solving for p, Initial residual = 0.00105311, Final residual = 5.61907e-10, No Iterations 2
max(U): (17.7874 0.0152727 2.13188e-32)
max/min p: 68970/58970
diagonal:  Solving for rho, Initial residual = 0, Final residual = 0, No Iterations 0
rho max/min : 0.83124 / 0.710718
time step continuity errors : sum local = 8.53844e-11, global = 6.81965e-12, cumulative = -1.40877e-12
max/min FaceAcCourant: 0.111754/0.0282613
max/min Maf: 0.0577036/0
max/min kappa: 0.980562/0
ExecutionTime = 0.23 s  ClockTime = 0 s

Mean and max Acoustic Courant Numbers = 0.0472646 0.111754
Courant Number max : 0.012879 velocity magnitude: 19.6405
Time = 1.5e-05

diagonal:  Solving for rho, Initial residual = 0, Final residual = 0, No Iterations 0
rho max/min : 0.83124 / 0.710718
DILUPBiCG:  Solving for h, Initial residual = 0.0448799, Final residual = 2.41901e-14, No Iterations 2
max/min T: 292.643/285.762
DILUPBiCG:  Solving for p, Initial residual = 0.00107533, Final residual = 7.40696e-10, No Iterations 2
max(U): (18.1141 0.0148076 2.13188e-32)
max/min p: 68970/58970
diagonal:  Solving for rho, Initial residual = 0, Final residual = 0, No Iterations 0
rho max/min : 0.83124 / 0.710718
time step continuity errors : sum local = 1.12313e-10, global = -2.48056e-12, cumulative = -3.88933e-12
max/min FaceAcCourant: 0.111754/0.0282445
max/min Maf: 0.0577213/0
max/min kappa: 0.980389/0
ExecutionTime = 0.24 s  ClockTime = 0 s

Mean and max Acoustic Courant Numbers = 0.0472685 0.111754
Courant Number max : 0.0128833 velocity magnitude: 19.6471
Time = 1.6e-05

diagonal:  Solving for rho, Initial residual = 0, Final residual = 0, No Iterations 0
rho max/min : 0.83124 / 0.710718
DILUPBiCG:  Solving for h, Initial residual = 0.0426923, Final residual = 3.93028e-14, No Iterations 2
max/min T: 292.914/285.448
DILUPBiCG:  Solving for p, Initial residual = 0.00109909, Final residual = 3.05786e-13, No Iterations 3
max(U): (18.3932 0.014506 2.13188e-32)
max/min p: 68970/58970
diagonal:  Solving for rho, Initial residual = 0, Final residual = 0, No Iterations 0
rho max/min : 0.83124 / 0.710718
time step continuity errors : sum local = 4.64023e-14, global = 1.4958e-14, cumulative = -3.87437e-12
max/min FaceAcCourant: 0.111754/0.028229
max/min Maf: 0.0579235/0
max/min kappa: 0.983353/0
ExecutionTime = 0.25 s  ClockTime = 0 s

Mean and max Acoustic Courant Numbers = 0.0472726 0.111754
Courant Number max : 0.0129286 velocity magnitude: 19.7161
Time = 1.7e-05

diagonal:  Solving for rho, Initial residual = 0, Final residual = 0, No Iterations 0
rho max/min : 0.83124 / 0.710718
DILUPBiCG:  Solving for h, Initial residual = 0.040635, Final residual = 3.55164e-15, No Iterations 2
max/min T: 293.146/285.165
DILUPBiCG:  Solving for p, Initial residual = 0.00112098, Final residual = 2.46004e-10, No Iterations 2
max(U): (18.6314 0.0141966 2.13188e-32)
max/min p: 68970/58970
diagonal:  Solving for rho, Initial residual = 0, Final residual = 0, No Iterations 0
rho max/min : 0.83124 / 0.710718
time step continuity errors : sum local = 3.71386e-11, global = 8.55018e-12, cumulative = 4.6758e-12
max/min FaceAcCourant: 0.111754/0.028215
max/min Maf: 0.0582194/0
max/min kappa: 0.987939/0
ExecutionTime = 0.26 s  ClockTime = 0 s

Mean and max Acoustic Courant Numbers = 0.0472768 0.111754
Courant Number max : 0.0129947 velocity magnitude: 19.8169
Time = 1.8e-05

diagonal:  Solving for rho, Initial residual = 0, Final residual = 0, No Iterations 0
rho max/min : 0.83124 / 0.710718
DILUPBiCG:  Solving for h, Initial residual = 0.0385452, Final residual = 3.3769e-15, No Iterations 2
max/min T: 293.339/284.912
DILUPBiCG:  Solving for p, Initial residual = 0.00114021, Final residual = 4.19565e-10, No Iterations 2
max(U): (18.8333 0.0138803 2.13188e-32)
max/min p: 68970/58970
diagonal:  Solving for rho, Initial residual = 0, Final residual = 0, No Iterations 0
rho max/min : 0.83124 / 0.710718
time step continuity errors : sum local = 6.31975e-11, global = 3.66826e-12, cumulative = 8.34406e-12
max/min FaceAcCourant: 0.111754/0.0282025
max/min Maf: 0.0585502/0
max/min kappa: 0.993158/0
ExecutionTime = 0.28 s  ClockTime = 0 s

Mean and max Acoustic Courant Numbers = 0.047281 0.111754
Courant Number max : 0.0130684 velocity magnitude: 19.9293
Time = 1.9e-05

diagonal:  Solving for rho, Initial residual = 0, Final residual = 0, No Iterations 0
rho max/min : 0.83124 / 0.710718
DILUPBiCG:  Solving for h, Initial residual = 0.0365118, Final residual = 2.98769e-15, No Iterations 2
max/min T: 293.499/284.691
DILUPBiCG:  Solving for p, Initial residual = 0.00115678, Final residual = 4.70743e-10, No Iterations 2
max(U): (19.0028 0.0135763 2.13188e-32)
max/min p: 68970/58970
diagonal:  Solving for rho, Initial residual = 0, Final residual = 0, No Iterations 0
rho max/min : 0.83124 / 0.710718
time step continuity errors : sum local = 7.07438e-11, global = 5.2294e-12, cumulative = 1.35735e-11
max/min FaceAcCourant: 0.111754/0.0281916
max/min Maf: 0.0588774/0
max/min kappa: 0.998365/0
ExecutionTime = 0.3 s  ClockTime = 0 s

Mean and max Acoustic Courant Numbers = 0.0472852 0.111754
Courant Number max : 0.0131412 velocity magnitude: 20.0403
Time = 2e-05

diagonal:  Solving for rho, Initial residual = 0, Final residual = 0, No Iterations 0
rho max/min : 0.83124 / 0.710718
DILUPBiCG:  Solving for h, Initial residual = 0.0345798, Final residual = 1.98453e-15, No Iterations 2
max/min T: 293.63/284.497
DILUPBiCG:  Solving for p, Initial residual = 0.00117086, Final residual = 4.66836e-10, No Iterations 2
max(U): (19.1426 0.0132914 2.13188e-32)
max/min p: 68970/58970
diagonal:  Solving for rho, Initial residual = 0, Final residual = 0, No Iterations 0
rho max/min : 0.83124 / 0.710718
time step continuity errors : sum local = 6.99938e-11, global = 3.5603e-12, cumulative = 1.71338e-11
max/min FaceAcCourant: 0.111754/0.028182
max/min Maf: 0.0591758/0
max/min kappa: 1/0
ExecutionTime = 0.32 s  ClockTime = 0 s

Mean and max Acoustic Courant Numbers = 0.0472896 0.111754
Courant Number max : 0.0132075 velocity magnitude: 20.1415
Time = 2.1e-05

diagonal:  Solving for rho, Initial residual = 0, Final residual = 0, No Iterations 0
rho max/min : 0.83124 / 0.710718
DILUPBiCG:  Solving for h, Initial residual = 0.0327745, Final residual = 1.47758e-15, No Iterations 2
max/min T: 293.737/284.329
DILUPBiCG:  Solving for p, Initial residual = 0.0011837, Final residual = 4.55529e-10, No Iterations 2
max(U): (19.2553 0.0130171 2.13188e-32)
max/min p: 68970/58970
diagonal:  Solving for rho, Initial residual = 0, Final residual = 0, No Iterations 0
rho max/min : 0.83124 / 0.710718
time step continuity errors : sum local = 6.81381e-11, global = 4.13251e-12, cumulative = 2.12663e-11
max/min FaceAcCourant: 0.111754/0.0281737
max/min Maf: 0.0594928/0
max/min kappa: 1/0
ExecutionTime = 0.34 s  ClockTime = 0 s

Mean and max Acoustic Courant Numbers = 0.0472941 0.111754
Courant Number max : 0.013278 velocity magnitude: 20.2489
Time = 2.2e-05

diagonal:  Solving for rho, Initial residual = 0, Final residual = 0, No Iterations 0
rho max/min : 0.83124 / 0.710718
DILUPBiCG:  Solving for h, Initial residual = 0.0311714, Final residual = 1.06962e-15, No Iterations 2
max/min T: 293.821/284.184
DILUPBiCG:  Solving for p, Initial residual = 0.00119613, Final residual = 3.83357e-10, No Iterations 2
max(U): (19.3429 0.0127631 2.13188e-32)
max/min p: 68970/58970
diagonal:  Solving for rho, Initial residual = 0, Final residual = 0, No Iterations 0
rho max/min : 0.83124 / 0.710718
time step continuity errors : sum local = 5.72064e-11, global = -2.85623e-12, cumulative = 1.841e-11
max/min FaceAcCourant: 0.111754/0.0281665
max/min Maf: 0.0598368/0
max/min kappa: 1/0
ExecutionTime = 0.35 s  ClockTime = 0 s

Mean and max Acoustic Courant Numbers = 0.0472988 0.111754
Courant Number max : 0.0133544 velocity magnitude: 20.3655
Time = 2.3e-05

diagonal:  Solving for rho, Initial residual = 0, Final residual = 0, No Iterations 0
rho max/min : 0.83124 / 0.710718
DILUPBiCG:  Solving for h, Initial residual = 0.029674, Final residual = 7.21624e-16, No Iterations 2
max/min T: 293.887/284.058
DILUPBiCG:  Solving for p, Initial residual = 0.00120665, Final residual = 3.38832e-10, No Iterations 2
max(U): (19.4077 0.0125296 2.13188e-32)
max/min p: 68970/58970
diagonal:  Solving for rho, Initial residual = 0, Final residual = 0, No Iterations 0
rho max/min : 0.83124 / 0.710718
time step continuity errors : sum local = 5.04409e-11, global = -3.12148e-13, cumulative = 1.80979e-11
max/min FaceAcCourant: 0.111754/0.0281602
max/min Maf: 0.0600975/0
max/min kappa: 1/0
ExecutionTime = 0.37 s  ClockTime = 0 s

Mean and max Acoustic Courant Numbers = 0.0473036 0.111754
Courant Number max : 0.0134122 velocity magnitude: 20.4536
Time = 2.4e-05

diagonal:  Solving for rho, Initial residual = 0, Final residual = 0, No Iterations 0
rho max/min : 0.83124 / 0.710718
DILUPBiCG:  Solving for h, Initial residual = 0.0282295, Final residual = 5.69807e-16, No Iterations 2
max/min T: 293.936/283.95
DILUPBiCG:  Solving for p, Initial residual = 0.00121488, Final residual = 3.16247e-10, No Iterations 2
max(U): (19.452 0.0123162 2.13188e-32)
max/min p: 68970/58970
diagonal:  Solving for rho, Initial residual = 0, Final residual = 0, No Iterations 0
rho max/min : 0.83124 / 0.710718
time step continuity errors : sum local = 4.69649e-11, global = -5.24275e-13, cumulative = 1.75736e-11
max/min FaceAcCourant: 0.111754/0.0281549
max/min Maf: 0.0602729/0
max/min kappa: 1/0
ExecutionTime = 0.39 s  ClockTime = 0 s

Mean and max Acoustic Courant Numbers = 0.0473084 0.111754
Courant Number max : 0.013451 velocity magnitude: 20.5128
Time = 2.5e-05

diagonal:  Solving for rho, Initial residual = 0, Final residual = 0, No Iterations 0
rho max/min : 0.83124 / 0.710718
DILUPBiCG:  Solving for h, Initial residual = 0.0268417, Final residual = 4.01757e-16, No Iterations 2
max/min T: 293.971/283.856
DILUPBiCG:  Solving for p, Initial residual = 0.00122083, Final residual = 2.89395e-10, No Iterations 2
max(U): (19.4783 0.0121221 2.13188e-32)
max/min p: 68970/58970
diagonal:  Solving for rho, Initial residual = 0, Final residual = 0, No Iterations 0
rho max/min : 0.83124 / 0.710718
time step continuity errors : sum local = 4.2875e-11, global = 3.74454e-12, cumulative = 2.13182e-11
max/min FaceAcCourant: 0.111754/0.0281502
max/min Maf: 0.0603695/0
max/min kappa: 1/0
ExecutionTime = 0.42 s  ClockTime = 0 s

Mean and max Acoustic Courant Numbers = 0.0473133 0.111754
Courant Number max : 0.0134722 velocity magnitude: 20.545
Time = 2.6e-05

diagonal:  Solving for rho, Initial residual = 0, Final residual = 0, No Iterations 0
rho max/min : 0.83124 / 0.710718
DILUPBiCG:  Solving for h, Initial residual = 0.0255217, Final residual = 2.81736e-16, No Iterations 2
max/min T: 293.994/283.776
DILUPBiCG:  Solving for p, Initial residual = 0.00122479, Final residual = 2.89113e-10, No Iterations 2
max(U): (19.4903 0.0119467 2.13188e-32)
max/min p: 68970/58970
diagonal:  Solving for rho, Initial residual = 0, Final residual = 0, No Iterations 0
rho max/min : 0.83124 / 0.710718
time step continuity errors : sum local = 4.27344e-11, global = 5.02769e-12, cumulative = 2.63458e-11
max/min FaceAcCourant: 0.111754/0.0281462
max/min Maf: 0.0603981/0
max/min kappa: 1/0
ExecutionTime = 0.43 s  ClockTime = 0 s

Mean and max Acoustic Courant Numbers = 0.0473183 0.111754
Courant Number max : 0.0134782 velocity magnitude: 20.5542
Time = 2.7e-05

diagonal:  Solving for rho, Initial residual = 0, Final residual = 0, No Iterations 0
rho max/min : 0.83124 / 0.710718
DILUPBiCG:  Solving for h, Initial residual = 0.0242818, Final residual = 2.6858e-16, No Iterations 2
max/min T: 294.005/283.707
DILUPBiCG:  Solving for p, Initial residual = 0.00122719, Final residual = 3.10409e-10, No Iterations 2
max(U): (19.5038 0.0118427 2.13188e-32)
max/min p: 68970/58970
diagonal:  Solving for rho, Initial residual = 0, Final residual = 0, No Iterations 0
rho max/min : 0.83124 / 0.710718
time step continuity errors : sum local = 4.57767e-11, global = 3.21496e-12, cumulative = 2.95608e-11
max/min FaceAcCourant: 0.111754/0.0281428
max/min Maf: 0.0603712/0
max/min kappa: 1/0
ExecutionTime = 0.44 s  ClockTime = 0 s

Mean and max Acoustic Courant Numbers = 0.0473231 0.111754
Courant Number max : 0.0134719 velocity magnitude: 20.5446
Time = 2.8e-05

diagonal:  Solving for rho, Initial residual = 0, Final residual = 0, No Iterations 0
rho max/min : 0.83124 / 0.710718
DILUPBiCG:  Solving for h, Initial residual = 0.0232234, Final residual = 1.59258e-16, No Iterations 2
max/min T: 294.006/283.648
DILUPBiCG:  Solving for p, Initial residual = 0.00122846, Final residual = 3.32383e-10, No Iterations 2
max(U): (19.515 0.0116036 2.13188e-32)
max/min p: 68970/58970
diagonal:  Solving for rho, Initial residual = 0, Final residual = 0, No Iterations 0
rho max/min : 0.83124 / 0.710718
time step continuity errors : sum local = 4.89038e-11, global = 2.5568e-12, cumulative = 3.21176e-11
max/min FaceAcCourant: 0.111754/0.0281399
max/min Maf: 0.0603031/0
max/min kappa: 1/0
ExecutionTime = 0.45 s  ClockTime = 0 s

Mean and max Acoustic Courant Numbers = 0.0473278 0.111754
Courant Number max : 0.0134563 velocity magnitude: 20.5209
Time = 2.9e-05

diagonal:  Solving for rho, Initial residual = 0, Final residual = 0, No Iterations 0
rho max/min : 0.83124 / 0.710718
DILUPBiCG:  Solving for h, Initial residual = 0.0225403, Final residual = 1.41844e-16, No Iterations 2
max/min T: 294.169/283.598
DILUPBiCG:  Solving for p, Initial residual = 0.00122898, Final residual = 3.41164e-10, No Iterations 2
max(U): (19.5124 0.0113605 2.13188e-32)
max/min p: 68970/58970
diagonal:  Solving for rho, Initial residual = 0, Final residual = 0, No Iterations 0
rho max/min : 0.83124 / 0.710718
time step continuity errors : sum local = 5.00783e-11, global = 5.45999e-12, cumulative = 3.75776e-11
max/min FaceAcCourant: 0.111754/0.0281374
max/min Maf: 0.060202/0
max/min kappa: 1/0
ExecutionTime = 0.46 s  ClockTime = 0 s

Mean and max Acoustic Courant Numbers = 0.0473326 0.111754
Courant Number max : 0.0134335 velocity magnitude: 20.4861
Time = 3e-05

diagonal:  Solving for rho, Initial residual = 0, Final residual = 0, No Iterations 0
rho max/min : 0.83124 / 0.710718
DILUPBiCG:  Solving for h, Initial residual = 0.0219203, Final residual = 1.67762e-16, No Iterations 2
max/min T: 294.308/283.558
DILUPBiCG:  Solving for p, Initial residual = 0.00122839, Final residual = 3.22911e-10, No Iterations 2
max(U): (19.4976 0.0111167 2.13188e-32)
max/min p: 68970/58970
diagonal:  Solving for rho, Initial residual = 0, Final residual = 0, No Iterations 0
rho max/min : 0.83124 / 0.710718
time step continuity errors : sum local = 4.72892e-11, global = 6.01299e-13, cumulative = 3.81789e-11
max/min FaceAcCourant: 0.111754/0.0281354
max/min Maf: 0.0600526/0
max/min kappa: 1/0
ExecutionTime = 0.47 s  ClockTime = 0 s

Mean and max Acoustic Courant Numbers = 0.0473373 0.111754
Courant Number max : 0.0133998 velocity magnitude: 20.4346
Time = 3.1e-05

diagonal:  Solving for rho, Initial residual = 0, Final residual = 0, No Iterations 0
rho max/min : 0.83124 / 0.710718
DILUPBiCG:  Solving for h, Initial residual = 0.0212877, Final residual = 1.34982e-16, No Iterations 2
max/min T: 294.427/283.525
DILUPBiCG:  Solving for p, Initial residual = 0.00122739, Final residual = 3.25485e-10, No Iterations 2
max(U): (19.4722 0.0108755 2.13188e-32)
max/min p: 68970/58970
diagonal:  Solving for rho, Initial residual = 0, Final residual = 0, No Iterations 0
rho max/min : 0.83124 / 0.710718
time step continuity errors : sum local = 4.75595e-11, global = 5.70802e-12, cumulative = 4.38869e-11
max/min FaceAcCourant: 0.111754/0.0281338
max/min Maf: 0.0598882/0
max/min kappa: 1/0
ExecutionTime = 0.48 s  ClockTime = 0 s

Mean and max Acoustic Courant Numbers = 0.0473421 0.111754
Courant Number max : 0.0133626 velocity magnitude: 20.378
Time = 3.2e-05

diagonal:  Solving for rho, Initial residual = 0, Final residual = 0, No Iterations 0
rho max/min : 0.83124 / 0.710718
DILUPBiCG:  Solving for h, Initial residual = 0.0206624, Final residual = 9.93738e-10, No Iterations 1
max/min T: 294.529/283.5
DILUPBiCG:  Solving for p, Initial residual = 0.00122663, Final residual = 3.16735e-10, No Iterations 2
max(U): (19.4369 0.0106363 2.13188e-32)
max/min p: 68970/58970
diagonal:  Solving for rho, Initial residual = 0, Final residual = 0, No Iterations 0
rho max/min : 0.83124 / 0.710718
time step continuity errors : sum local = 4.61795e-11, global = 9.83597e-12, cumulative = 5.37229e-11
max/min FaceAcCourant: 0.111754/0.0281325
max/min Maf: 0.0597427/0
max/min kappa: 1/0
ExecutionTime = 0.5 s  ClockTime = 0 s

Mean and max Acoustic Courant Numbers = 0.0473468 0.111754
Courant Number max : 0.0133296 velocity magnitude: 20.3276
Time = 3.3e-05

diagonal:  Solving for rho, Initial residual = 0, Final residual = 0, No Iterations 0
rho max/min : 0.83124 / 0.710718
DILUPBiCG:  Solving for h, Initial residual = 0.0200559, Final residual = 8.8573e-10, No Iterations 1
max/min T: 294.617/283.482
DILUPBiCG:  Solving for p, Initial residual = 0.00122714, Final residual = 2.75484e-10, No Iterations 2
max(U): (19.3975 0.0104042 2.13188e-32)
max/min p: 68970/58970
diagonal:  Solving for rho, Initial residual = 0, Final residual = 0, No Iterations 0
rho max/min : 0.83124 / 0.710718
time step continuity errors : sum local = 4.00758e-11, global = 1.09232e-11, cumulative = 6.46461e-11
max/min FaceAcCourant: 0.111754/0.0281316
max/min Maf: 0.0597074/0
max/min kappa: 1/0
ExecutionTime = 0.51 s  ClockTime = 0 s

Mean and max Acoustic Courant Numbers = 0.0473517 0.111754
Courant Number max : 0.0133211 velocity magnitude: 20.3147
Time = 3.4e-05

diagonal:  Solving for rho, Initial residual = 0, Final residual = 0, No Iterations 0
rho max/min : 0.83124 / 0.710718
DILUPBiCG:  Solving for h, Initial residual = 0.0194728, Final residual = 7.8309e-10, No Iterations 1
max/min T: 294.693/283.452
DILUPBiCG:  Solving for p, Initial residual = 0.00122577, Final residual = 3.13141e-10, No Iterations 2
max(U): (19.3582 0.0101708 2.13188e-32)
max/min p: 68970/58970
diagonal:  Solving for rho, Initial residual = 0, Final residual = 0, No Iterations 0
rho max/min : 0.83124 / 0.710718
time step continuity errors : sum local = 4.5451e-11, global = 1.52632e-11, cumulative = 7.99093e-11
max/min FaceAcCourant: 0.111754/0.0281301
max/min Maf: 0.0590706/0
max/min kappa: 1/0
ExecutionTime = 0.53 s  ClockTime = 0 s

Mean and max Acoustic Courant Numbers = 0.0473563 0.111754
Courant Number max : 0.0131784 velocity magnitude: 20.0971
Time = 3.5e-05

diagonal:  Solving for rho, Initial residual = 0, Final residual = 0, No Iterations 0
rho max/min : 0.83124 / 0.710718
DILUPBiCG:  Solving for h, Initial residual = 0.0189092, Final residual = 7.16034e-10, No Iterations 1
max/min T: 294.759/283.347
DILUPBiCG:  Solving for p, Initial residual = 0.00122091, Final residual = 2.88671e-10, No Iterations 2
max(U): (19.3194 0.00993112 2.13188e-32)
max/min p: 68970/58970
diagonal:  Solving for rho, Initial residual = 0, Final residual = 0, No Iterations 0
rho max/min : 0.83124 / 0.710718
time step continuity errors : sum local = 4.18035e-11, global = 1.29955e-11, cumulative = 9.29047e-11
max/min FaceAcCourant: 0.111754/0.028125
max/min Maf: 0.058745/0
max/min kappa: 0.995404/0
ExecutionTime = 0.55 s  ClockTime = 0 s

Mean and max Acoustic Courant Numbers = 0.0473609 0.111754
Courant Number max : 0.013105 velocity magnitude: 19.9851
Time = 3.6e-05

diagonal:  Solving for rho, Initial residual = 0, Final residual = 0, No Iterations 0
rho max/min : 0.83124 / 0.710718
DILUPBiCG:  Solving for h, Initial residual = 0.0183725, Final residual = 7.68759e-10, No Iterations 1
max/min T: 294.816/283.255
DILUPBiCG:  Solving for p, Initial residual = 0.00121765, Final residual = 3.00411e-10, No Iterations 2
max(U): (19.2818 0.00969166 2.13188e-32)
max/min p: 68970/58970
diagonal:  Solving for rho, Initial residual = 0, Final residual = 0, No Iterations 0
rho max/min : 0.83124 / 0.710718
time step continuity errors : sum local = 4.3403e-11, global = 1.33717e-11, cumulative = 1.06276e-10
max/min FaceAcCourant: 0.111754/0.0281204
max/min Maf: 0.0584457/0
max/min kappa: 0.990523/0
ExecutionTime = 0.56 s  ClockTime = 0 s

Mean and max Acoustic Courant Numbers = 0.0473655 0.111754
Courant Number max : 0.0130376 velocity magnitude: 19.8823
Time = 3.7e-05

diagonal:  Solving for rho, Initial residual = 0, Final residual = 0, No Iterations 0
rho max/min : 0.83124 / 0.710718
DILUPBiCG:  Solving for h, Initial residual = 0.0179349, Final residual = 6.20658e-10, No Iterations 1
max/min T: 294.864/283.173
DILUPBiCG:  Solving for p, Initial residual = 0.00121552, Final residual = 2.85977e-10, No Iterations 2
max(U): (19.2455 0.00944942 2.13188e-32)
max/min p: 68970/58970
diagonal:  Solving for rho, Initial residual = 0, Final residual = 0, No Iterations 0
rho max/min : 0.83124 / 0.710718
time step continuity errors : sum local = 4.1221e-11, global = 7.79754e-12, cumulative = 1.14074e-10
max/min FaceAcCourant: 0.111754/0.0281163
max/min Maf: 0.0581721/0
max/min kappa: 0.986072/0
ExecutionTime = 0.58 s  ClockTime = 0 s

Mean and max Acoustic Courant Numbers = 0.0473701 0.111754
Courant Number max : 0.012976 velocity magnitude: 19.7884
Time = 3.8e-05

diagonal:  Solving for rho, Initial residual = 0, Final residual = 0, No Iterations 0
rho max/min : 0.83124 / 0.710718
DILUPBiCG:  Solving for h, Initial residual = 0.0175008, Final residual = 5.34043e-10, No Iterations 1
max/min T: 294.904/283.1
DILUPBiCG:  Solving for p, Initial residual = 0.00121425, Final residual = 2.81962e-10, No Iterations 2
max(U): (19.2107 0.00920657 2.13188e-32)
max/min p: 68970/58970
diagonal:  Solving for rho, Initial residual = 0, Final residual = 0, No Iterations 0
rho max/min : 0.83124 / 0.710718
time step continuity errors : sum local = 4.05465e-11, global = 4.82594e-12, cumulative = 1.189e-10
max/min FaceAcCourant: 0.111754/0.0281127
max/min Maf: 0.0579234/0
max/min kappa: 0.982035/0
ExecutionTime = 0.6 s  ClockTime = 0 s

Mean and max Acoustic Courant Numbers = 0.0473748 0.111754
Courant Number max : 0.01292 velocity magnitude: 19.7031
Time = 3.9e-05

diagonal:  Solving for rho, Initial residual = 0, Final residual = 0, No Iterations 0
rho max/min : 0.83124 / 0.710718
DILUPBiCG:  Solving for h, Initial residual = 0.0170508, Final residual = 5.37611e-10, No Iterations 1
max/min T: 294.938/283.036
DILUPBiCG:  Solving for p, Initial residual = 0.00121369, Final residual = 2.74377e-10, No Iterations 2
max(U): (19.1775 0.0089615 2.13188e-32)
max/min p: 68970/58970
diagonal:  Solving for rho, Initial residual = 0, Final residual = 0, No Iterations 0
rho max/min : 0.83124 / 0.710718
time step continuity errors : sum local = 3.93622e-11, global = 9.20972e-12, cumulative = 1.2811e-10
max/min FaceAcCourant: 0.111754/0.0281095
max/min Maf: 0.0576985/0
max/min kappa: 0.97839/0
ExecutionTime = 0.62 s  ClockTime = 0 s

Mean and max Acoustic Courant Numbers = 0.0473795 0.111754
Courant Number max : 0.0128694 velocity magnitude: 19.6259
Time = 4e-05

diagonal:  Solving for rho, Initial residual = 0, Final residual = 0, No Iterations 0
rho max/min : 0.83124 / 0.710718
DILUPBiCG:  Solving for h, Initial residual = 0.0166063, Final residual = 4.519e-10, No Iterations 1
max/min T: 294.964/282.98
DILUPBiCG:  Solving for p, Initial residual = 0.00121372, Final residual = 2.69175e-10, No Iterations 2
max(U): (19.146 0.00871269 2.13188e-32)
max/min p: 68970/58970
diagonal:  Solving for rho, Initial residual = 0, Final residual = 0, No Iterations 0
rho max/min : 0.83124 / 0.710718
time step continuity errors : sum local = 3.85234e-11, global = 9.84898e-12, cumulative = 1.37959e-10
max/min FaceAcCourant: 0.111754/0.0281067
max/min Maf: 0.057496/0
max/min kappa: 0.975114/0
ExecutionTime = 0.64 s  ClockTime = 0 s

Mean and max Acoustic Courant Numbers = 0.0473843 0.111754
Courant Number max : 0.0128238 velocity magnitude: 19.5563
Time = 4.1e-05

diagonal:  Solving for rho, Initial residual = 0, Final residual = 0, No Iterations 0
rho max/min : 0.83124 / 0.710718
DILUPBiCG:  Solving for h, Initial residual = 0.0161622, Final residual = 3.86414e-10, No Iterations 1
max/min T: 294.984/282.931
DILUPBiCG:  Solving for p, Initial residual = 0.00121856, Final residual = 2.85416e-10, No Iterations 2
max(U): (19.1162 0.00845866 2.13188e-32)
max/min p: 68970/58970
diagonal:  Solving for rho, Initial residual = 0, Final residual = 0, No Iterations 0
rho max/min : 0.83124 / 0.710718
time step continuity errors : sum local = 4.07495e-11, global = 1.79842e-11, cumulative = 1.55943e-10
max/min FaceAcCourant: 0.111754/0.0281043
max/min Maf: 0.0573142/0
max/min kappa: 0.972179/0
ExecutionTime = 0.66 s  ClockTime = 0 s

Mean and max Acoustic Courant Numbers = 0.047389 0.111754
Courant Number max : 0.0127829 velocity magnitude: 19.4939
Time = 4.2e-05

diagonal:  Solving for rho, Initial residual = 0, Final residual = 0, No Iterations 0
rho max/min : 0.83124 / 0.710718
DILUPBiCG:  Solving for h, Initial residual = 0.0157231, Final residual = 3.24983e-10, No Iterations 1
max/min T: 294.998/282.889
DILUPBiCG:  Solving for p, Initial residual = 0.00122416, Final residual = 2.25432e-10, No Iterations 2
max(U): (19.0883 0.0081977 2.13188e-32)
max/min p: 68970/58970
diagonal:  Solving for rho, Initial residual = 0, Final residual = 0, No Iterations 0
rho max/min : 0.83124 / 0.710718
time step continuity errors : sum local = 3.21077e-11, global = 1.2473e-11, cumulative = 1.68416e-10
max/min FaceAcCourant: 0.111754/0.0281022
max/min Maf: 0.0571516/0
max/min kappa: 0.969559/0
ExecutionTime = 0.68 s  ClockTime = 0 s

Mean and max Acoustic Courant Numbers = 0.0473938 0.111754
Courant Number max : 0.0127463 velocity magnitude: 19.438
Time = 4.3e-05

diagonal:  Solving for rho, Initial residual = 0, Final residual = 0, No Iterations 0
rho max/min : 0.83124 / 0.710718
DILUPBiCG:  Solving for h, Initial residual = 0.0152927, Final residual = 2.80071e-10, No Iterations 1
max/min T: 295.007/282.853
DILUPBiCG:  Solving for p, Initial residual = 0.00122966, Final residual = 2.34806e-10, No Iterations 2
max(U): (19.0623 0.00792806 2.13188e-32)
max/min p: 68970/58970
diagonal:  Solving for rho, Initial residual = 0, Final residual = 0, No Iterations 0
rho max/min : 0.83124 / 0.710718
time step continuity errors : sum local = 3.3362e-11, global = 1.22936e-11, cumulative = 1.80709e-10
max/min FaceAcCourant: 0.111754/0.0281004
max/min Maf: 0.0570059/0
max/min kappa: 0.968019/0
ExecutionTime = 0.69 s  ClockTime = 0 s

Mean and max Acoustic Courant Numbers = 0.0473986 0.111754
Courant Number max : 0.0127134 velocity magnitude: 19.3879
Time = 4.4e-05

diagonal:  Solving for rho, Initial residual = 0, Final residual = 0, No Iterations 0
rho max/min : 0.83124 / 0.710718
DILUPBiCG:  Solving for h, Initial residual = 0.0148722, Final residual = 3.02263e-10, No Iterations 1
max/min T: 295.032/282.823
DILUPBiCG:  Solving for p, Initial residual = 0.00123457, Final residual = 2.61756e-10, No Iterations 2
max(U): (19.0373 0.00769159 2.13188e-32)
max/min p: 68970/58970
diagonal:  Solving for rho, Initial residual = 0, Final residual = 0, No Iterations 0
rho max/min : 0.83124 / 0.710718
time step continuity errors : sum local = 3.71031e-11, global = 1.44039e-11, cumulative = 1.95113e-10
max/min FaceAcCourant: 0.111754/0.0280989
max/min Maf: 0.056886/0
max/min kappa: 0.966897/0
ExecutionTime = 0.71 s  ClockTime = 0 s

Mean and max Acoustic Courant Numbers = 0.0474032 0.111754
Courant Number max : 0.0126863 velocity magnitude: 19.3466
Time = 4.5e-05

diagonal:  Solving for rho, Initial residual = 0, Final residual = 0, No Iterations 0
rho max/min : 0.83124 / 0.710718
DILUPBiCG:  Solving for h, Initial residual = 0.0144768, Final residual = 2.87936e-10, No Iterations 1
max/min T: 295.097/282.798
DILUPBiCG:  Solving for p, Initial residual = 0.00123934, Final residual = 2.45727e-10, No Iterations 2
max(U): (19.0134 0.00743993 2.13188e-32)
max/min p: 68970/58970
diagonal:  Solving for rho, Initial residual = 0, Final residual = 0, No Iterations 0
rho max/min : 0.83124 / 0.710718
time step continuity errors : sum local = 3.47495e-11, global = 1.22518e-11, cumulative = 2.07365e-10
max/min FaceAcCourant: 0.111754/0.0280977
max/min Maf: 0.0567826/0
max/min kappa: 0.966919/0
ExecutionTime = 0.73 s  ClockTime = 0 s

Mean and max Acoustic Courant Numbers = 0.0474079 0.111754
Courant Number max : 0.0126629 velocity magnitude: 19.3109
Time = 4.6e-05

diagonal:  Solving for rho, Initial residual = 0, Final residual = 0, No Iterations 0
rho max/min : 0.83124 / 0.710718
DILUPBiCG:  Solving for h, Initial residual = 0.0141565, Final residual = 2.37195e-10, No Iterations 1
max/min T: 295.154/282.778
DILUPBiCG:  Solving for p, Initial residual = 0.00124486, Final residual = 2.29913e-10, No Iterations 2
max(U): (18.9914 0.00717402 2.13188e-32)
max/min p: 68970/58970
diagonal:  Solving for rho, Initial residual = 0, Final residual = 0, No Iterations 0
rho max/min : 0.83124 / 0.710718
time step continuity errors : sum local = 3.24364e-11, global = 1.02158e-11, cumulative = 2.17581e-10
max/min FaceAcCourant: 0.111754/0.0280966
max/min Maf: 0.0566875/0
max/min kappa: 0.967997/0
ExecutionTime = 0.75 s  ClockTime = 0 s

Mean and max Acoustic Courant Numbers = 0.0474125 0.111754
Courant Number max : 0.0126414 velocity magnitude: 19.2781
Time = 4.7e-05

diagonal:  Solving for rho, Initial residual = 0, Final residual = 0, No Iterations 0
rho max/min : 0.83124 / 0.710718
DILUPBiCG:  Solving for h, Initial residual = 0.0138362, Final residual = 2.35996e-10, No Iterations 1
max/min T: 295.204/282.762
DILUPBiCG:  Solving for p, Initial residual = 0.00125051, Final residual = 2.38679e-10, No Iterations 2
max(U): (18.9953 0.00688076 2.13188e-32)
max/min p: 68970/58970
diagonal:  Solving for rho, Initial residual = 0, Final residual = 0, No Iterations 0
rho max/min : 0.83124 / 0.710718
time step continuity errors : sum local = 3.35928e-11, global = 8.94964e-12, cumulative = 2.2653e-10
max/min FaceAcCourant: 0.111754/0.0280959
max/min Maf: 0.0565944/0
max/min kappa: 0.968891/0
ExecutionTime = 0.77 s  ClockTime = 0 s

Mean and max Acoustic Courant Numbers = 0.0474172 0.111754
Courant Number max : 0.0126215 velocity magnitude: 19.2478
Time = 4.8e-05

diagonal:  Solving for rho, Initial residual = 0, Final residual = 0, No Iterations 0
rho max/min : 0.83124 / 0.710718
DILUPBiCG:  Solving for h, Initial residual = 0.013521, Final residual = 2.00258e-10, No Iterations 1
max/min T: 295.247/282.75
DILUPBiCG:  Solving for p, Initial residual = 0.00125592, Final residual = 2.21403e-10, No Iterations 2
max(U): (19.0169 0.00650723 2.13188e-32)
max/min p: 68970/58970
diagonal:  Solving for rho, Initial residual = 0, Final residual = 0, No Iterations 0
rho max/min : 0.83124 / 0.710718
time step continuity errors : sum local = 3.10864e-11, global = 8.3196e-12, cumulative = 2.3485e-10
max/min FaceAcCourant: 0.111754/0.0280952
max/min Maf: 0.0565706/0
max/min kappa: 0.969056/0
ExecutionTime = 0.79 s  ClockTime = 0 s

Mean and max Acoustic Courant Numbers = 0.0474219 0.111754
Courant Number max : 0.0126244 velocity magnitude: 19.2522
Time = 4.9e-05

diagonal:  Solving for rho, Initial residual = 0, Final residual = 0, No Iterations 0
rho max/min : 0.83124 / 0.710718
DILUPBiCG:  Solving for h, Initial residual = 0.0132123, Final residual = 1.77437e-10, No Iterations 1
max/min T: 295.285/282.741
DILUPBiCG:  Solving for p, Initial residual = 0.00126064, Final residual = 2.11911e-10, No Iterations 2
max(U): (19.0339 0.00663191 2.13188e-32)
max/min p: 68970/58970
diagonal:  Solving for rho, Initial residual = 0, Final residual = 0, No Iterations 0
rho max/min : 0.83124 / 0.710718
time step continuity errors : sum local = 2.96815e-11, global = 5.46001e-12, cumulative = 2.4031e-10
max/min FaceAcCourant: 0.111754/0.0280948
max/min Maf: 0.0565805/0
max/min kappa: 0.969211/0
ExecutionTime = 0.81 s  ClockTime = 0 s

Mean and max Acoustic Courant Numbers = 0.0474267 0.111754
Courant Number max : 0.0126278 velocity magnitude: 19.2574
Time = 5e-05

diagonal:  Solving for rho, Initial residual = 0, Final residual = 0, No Iterations 0
rho max/min : 0.83124 / 0.710718
DILUPBiCG:  Solving for h, Initial residual = 0.0129085, Final residual = 1.5897e-10, No Iterations 1
max/min T: 295.317/282.735
DILUPBiCG:  Solving for p, Initial residual = 0.001265, Final residual = 2.22054e-10, No Iterations 2
max(U): (19.0471 0.00696574 2.13188e-32)
max/min p: 68970/58970
diagonal:  Solving for rho, Initial residual = 0, Final residual = 0, No Iterations 0
rho max/min : 0.83124 / 0.710718
time step continuity errors : sum local = 3.10263e-11, global = 7.56638e-12, cumulative = 2.47876e-10
max/min FaceAcCourant: 0.111754/0.0280945
max/min Maf: 0.0566017/0
max/min kappa: 0.969551/0
ExecutionTime = 0.86 s  ClockTime = 0 s

Mean and max Acoustic Courant Numbers = 0.0474314 0.111754
Courant Number max : 0.0126309 velocity magnitude: 19.2622
Time = 5.1e-05

diagonal:  Solving for rho, Initial residual = 0, Final residual = 0, No Iterations 0
rho max/min : 0.83124 / 0.710718
DILUPBiCG:  Solving for h, Initial residual = 0.0126147, Final residual = 1.3459e-10, No Iterations 1
max/min T: 295.344/282.731
DILUPBiCG:  Solving for p, Initial residual = 0.00126962, Final residual = 2.29973e-10, No Iterations 2
max(U): (19.0564 0.00639295 2.13188e-32)
max/min p: 68970/58970
diagonal:  Solving for rho, Initial residual = 0, Final residual = 0, No Iterations 0
rho max/min : 0.83124 / 0.710718
time step continuity errors : sum local = 3.20539e-11, global = 1.17221e-11, cumulative = 2.59599e-10
max/min FaceAcCourant: 0.111754/0.0280943
max/min Maf: 0.0566758/0
max/min kappa: 0.970726/0
ExecutionTime = 0.88 s  ClockTime = 0 s

Mean and max Acoustic Courant Numbers = 0.0474361 0.111754
Courant Number max : 0.0126336 velocity magnitude: 19.2662
Time = 5.2e-05

diagonal:  Solving for rho, Initial residual = 0, Final residual = 0, No Iterations 0
rho max/min : 0.83124 / 0.710718
DILUPBiCG:  Solving for h, Initial residual = 0.0123465, Final residual = 1.14605e-10, No Iterations 1
max/min T: 295.367/282.729
DILUPBiCG:  Solving for p, Initial residual = 0.00127372, Final residual = 2.68064e-10, No Iterations 2
max(U): (19.062 0.00588422 2.13188e-32)
max/min p: 68970/58970
diagonal:  Solving for rho, Initial residual = 0, Final residual = 0, No Iterations 0
rho max/min : 0.83124 / 0.710718
time step continuity errors : sum local = 3.7271e-11, global = 2.00572e-11, cumulative = 2.79656e-10
max/min FaceAcCourant: 0.111754/0.0280942
max/min Maf: 0.0567301/0
max/min kappa: 0.971581/0
ExecutionTime = 0.9 s  ClockTime = 1 s

Mean and max Acoustic Courant Numbers = 0.0474408 0.111754
Courant Number max : 0.0126357 velocity magnitude: 19.2695
Time = 5.3e-05

diagonal:  Solving for rho, Initial residual = 0, Final residual = 0, No Iterations 0
rho max/min : 0.83124 / 0.710718
DILUPBiCG:  Solving for h, Initial residual = 0.0120974, Final residual = 1.23277e-10, No Iterations 1
max/min T: 295.386/282.718
DILUPBiCG:  Solving for p, Initial residual = 0.00127692, Final residual = 2.28896e-10, No Iterations 2
max(U): (19.0644 0.00549395 2.13188e-32)
max/min p: 68970/58970
diagonal:  Solving for rho, Initial residual = 0, Final residual = 0, No Iterations 0
rho max/min : 0.83124 / 0.710718
time step continuity errors : sum local = 3.17486e-11, global = 1.4998e-11, cumulative = 2.94654e-10
max/min FaceAcCourant: 0.111754/0.0280937
max/min Maf: 0.056755/0
max/min kappa: 0.971937/0
ExecutionTime = 0.91 s  ClockTime = 1 s

Mean and max Acoustic Courant Numbers = 0.0474455 0.111754
Courant Number max : 0.0126373 velocity magnitude: 19.272
Time = 5.4e-05

diagonal:  Solving for rho, Initial residual = 0, Final residual = 0, No Iterations 0
rho max/min : 0.83124 / 0.710718
DILUPBiCG:  Solving for h, Initial residual = 0.0118573, Final residual = 1.06951e-10, No Iterations 1
max/min T: 295.402/282.687
DILUPBiCG:  Solving for p, Initial residual = 0.00127908, Final residual = 2.13557e-10, No Iterations 2
max(U): (19.0639 0.00518023 2.13188e-32)
max/min p: 68970/58970
diagonal:  Solving for rho, Initial residual = 0, Final residual = 0, No Iterations 0
rho max/min : 0.83124 / 0.710718
time step continuity errors : sum local = 2.95514e-11, global = 1.03851e-11, cumulative = 3.05039e-10
max/min FaceAcCourant: 0.111754/0.0280921
max/min Maf: 0.0567309/0
max/min kappa: 0.971468/0
ExecutionTime = 0.93 s  ClockTime = 1 s

Mean and max Acoustic Courant Numbers = 0.0474502 0.111754
Courant Number max : 0.0126388 velocity magnitude: 19.2742
Time = 5.5e-05

diagonal:  Solving for rho, Initial residual = 0, Final residual = 0, No Iterations 0
rho max/min : 0.83124 / 0.710718
DILUPBiCG:  Solving for h, Initial residual = 0.0116336, Final residual = 1.03481e-10, No Iterations 1
max/min T: 295.415/282.659
DILUPBiCG:  Solving for p, Initial residual = 0.00128144, Final residual = 2.07606e-10, No Iterations 2
max(U): (19.0608 0.00494752 2.13188e-32)
max/min p: 68970/58970
diagonal:  Solving for rho, Initial residual = 0, Final residual = 0, No Iterations 0
rho max/min : 0.83124 / 0.710718
time step continuity errors : sum local = 2.86597e-11, global = 7.99926e-12, cumulative = 3.13038e-10
max/min FaceAcCourant: 0.111754/0.0280908
max/min Maf: 0.056709/0
max/min kappa: 0.971046/0
ExecutionTime = 0.95 s  ClockTime = 1 s

Mean and max Acoustic Courant Numbers = 0.0474549 0.111754
Courant Number max : 0.0126398 velocity magnitude: 19.2756
Time = 5.6e-05

diagonal:  Solving for rho, Initial residual = 0, Final residual = 0, No Iterations 0
rho max/min : 0.83124 / 0.710718
DILUPBiCG:  Solving for h, Initial residual = 0.0114107, Final residual = 9.91202e-11, No Iterations 1
max/min T: 295.425/282.636
DILUPBiCG:  Solving for p, Initial residual = 0.0012834, Final residual = 2.10265e-10, No Iterations 2
max(U): (19.0557 0.0049012 2.13188e-32)
max/min p: 68970/58970
diagonal:  Solving for rho, Initial residual = 0, Final residual = 0, No Iterations 0
rho max/min : 0.83124 / 0.710718
time step continuity errors : sum local = 2.89571e-11, global = 4.53512e-12, cumulative = 3.17573e-10
max/min FaceAcCourant: 0.111754/0.0280896
max/min Maf: 0.0566845/0
max/min kappa: 0.970591/0
ExecutionTime = 0.96 s  ClockTime = 1 s

Mean and max Acoustic Courant Numbers = 0.0474596 0.111754
Courant Number max : 0.0126403 velocity magnitude: 19.2765
Time = 5.7e-05

diagonal:  Solving for rho, Initial residual = 0, Final residual = 0, No Iterations 0
rho max/min : 0.83124 / 0.710718
DILUPBiCG:  Solving for h, Initial residual = 0.0111863, Final residual = 8.61162e-11, No Iterations 1
max/min T: 295.433/282.616
DILUPBiCG:  Solving for p, Initial residual = 0.00128465, Final residual = 2.08634e-10, No Iterations 2
max(U): (19.0489 0.00483808 2.13188e-32)
max/min p: 68970/58970
diagonal:  Solving for rho, Initial residual = 0, Final residual = 0, No Iterations 0
rho max/min : 0.83124 / 0.710718
time step continuity errors : sum local = 2.86628e-11, global = 2.78946e-12, cumulative = 3.20363e-10
max/min FaceAcCourant: 0.111754/0.0280886
max/min Maf: 0.0566457/0
max/min kappa: 0.969906/0
ExecutionTime = 0.98 s  ClockTime = 1 s

Mean and max Acoustic Courant Numbers = 0.0474644 0.111754
Courant Number max : 0.012641 velocity magnitude: 19.2775
Time = 5.8e-05

diagonal:  Solving for rho, Initial residual = 0, Final residual = 0, No Iterations 0
rho max/min : 0.83124 / 0.710718
DILUPBiCG:  Solving for h, Initial residual = 0.0109614, Final residual = 7.72856e-11, No Iterations 1
max/min T: 295.438/282.598
DILUPBiCG:  Solving for p, Initial residual = 0.0012856, Final residual = 1.94576e-10, No Iterations 2
max(U): (19.0409 0.00476 2.13188e-32)
max/min p: 68970/58970
diagonal:  Solving for rho, Initial residual = 0, Final residual = 0, No Iterations 0
rho max/min : 0.83124 / 0.710718
time step continuity errors : sum local = 2.66662e-11, global = 4.28835e-12, cumulative = 3.24651e-10
max/min FaceAcCourant: 0.111754/0.0280877
max/min Maf: 0.0566071/0
max/min kappa: 0.969234/0
ExecutionTime = 1 s  ClockTime = 1 s

Mean and max Acoustic Courant Numbers = 0.0474692 0.111754
Courant Number max : 0.0126421 velocity magnitude: 19.2792
Time = 5.9e-05

diagonal:  Solving for rho, Initial residual = 0, Final residual = 0, No Iterations 0
rho max/min : 0.83124 / 0.710718
DILUPBiCG:  Solving for h, Initial residual = 0.0107394, Final residual = 6.54633e-11, No Iterations 1
max/min T: 295.442/282.583
DILUPBiCG:  Solving for p, Initial residual = 0.00128691, Final residual = 1.82281e-10, No Iterations 2
max(U): (19.0319 0.00466672 2.13188e-32)
max/min p: 68970/58970
diagonal:  Solving for rho, Initial residual = 0, Final residual = 0, No Iterations 0
rho max/min : 0.83124 / 0.710718
time step continuity errors : sum local = 2.49197e-11, global = 7.23721e-12, cumulative = 3.31888e-10
max/min FaceAcCourant: 0.111754/0.028087
max/min Maf: 0.0565709/0
max/min kappa: 0.968612/0
ExecutionTime = 1.02 s  ClockTime = 1 s

Mean and max Acoustic Courant Numbers = 0.0474739 0.111754
Courant Number max : 0.0126409 velocity magnitude: 19.2773
Time = 6e-05

diagonal:  Solving for rho, Initial residual = 0, Final residual = 0, No Iterations 0
rho max/min : 0.83124 / 0.710718
DILUPBiCG:  Solving for h, Initial residual = 0.010524, Final residual = 6.08346e-11, No Iterations 1
max/min T: 295.444/282.57
DILUPBiCG:  Solving for p, Initial residual = 0.00128835, Final residual = 2.14442e-10, No Iterations 2
max(U): (19.0214 0.00455925 2.13188e-32)
max/min p: 68970/58970
diagonal:  Solving for rho, Initial residual = 0, Final residual = 0, No Iterations 0
rho max/min : 0.83124 / 0.710718
time step continuity errors : sum local = 2.92439e-11, global = 1.56646e-11, cumulative = 3.47553e-10
max/min FaceAcCourant: 0.111754/0.0280863
max/min Maf: 0.0565392/0
max/min kappa: 0.968072/0
ExecutionTime = 1.04 s  ClockTime = 1 s

Mean and max Acoustic Courant Numbers = 0.0474787 0.111754
Courant Number max : 0.0126367 velocity magnitude: 19.271
Time = 6.1e-05

diagonal:  Solving for rho, Initial residual = 0, Final residual = 0, No Iterations 0
rho max/min : 0.83124 / 0.710718
DILUPBiCG:  Solving for h, Initial residual = 0.0103133, Final residual = 5.60939e-11, No Iterations 1
max/min T: 295.444/282.559
DILUPBiCG:  Solving for p, Initial residual = 0.00128867, Final residual = 1.87558e-10, No Iterations 2
max(U): (19.0117 0.00446194 2.13188e-32)
max/min p: 68970/58970
diagonal:  Solving for rho, Initial residual = 0, Final residual = 0, No Iterations 0
rho max/min : 0.83124 / 0.710718
time step continuity errors : sum local = 2.5514e-11, global = 1.30384e-11, cumulative = 3.60591e-10
max/min FaceAcCourant: 0.111754/0.0280858
max/min Maf: 0.0565108/0
max/min kappa: 0.967594/0
ExecutionTime = 1.05 s  ClockTime = 1 s

Mean and max Acoustic Courant Numbers = 0.0474834 0.111754
Courant Number max : 0.0126321 velocity magnitude: 19.2639
Time = 6.2e-05

diagonal:  Solving for rho, Initial residual = 0, Final residual = 0, No Iterations 0
rho max/min : 0.83124 / 0.710718
DILUPBiCG:  Solving for h, Initial residual = 0.0101225, Final residual = 6.45434e-11, No Iterations 1
max/min T: 295.448/282.55
DILUPBiCG:  Solving for p, Initial residual = 0.00128888, Final residual = 1.92861e-10, No Iterations 2
max(U): (19.0064 0.00437197 2.13188e-32)
max/min p: 68970/58970
diagonal:  Solving for rho, Initial residual = 0, Final residual = 0, No Iterations 0
rho max/min : 0.83124 / 0.710718
time step continuity errors : sum local = 2.61696e-11, global = 1.28601e-11, cumulative = 3.73451e-10
max/min FaceAcCourant: 0.111754/0.0280853
max/min Maf: 0.0564892/0
max/min kappa: 0.96719/0
ExecutionTime = 1.07 s  ClockTime = 1 s

Mean and max Acoustic Courant Numbers = 0.047488 0.111754
Courant Number max : 0.0126289 velocity magnitude: 19.2591
Time = 6.3e-05

diagonal:  Solving for rho, Initial residual = 0, Final residual = 0, No Iterations 0
rho max/min : 0.83124 / 0.710718
DILUPBiCG:  Solving for h, Initial residual = 0.00993971, Final residual = 6.03671e-11, No Iterations 1
max/min T: 295.464/282.542
DILUPBiCG:  Solving for p, Initial residual = 0.00128916, Final residual = 1.83401e-10, No Iterations 2
max(U): (19.0009 0.00427931 2.13188e-32)
max/min p: 68970/58970
diagonal:  Solving for rho, Initial residual = 0, Final residual = 0, No Iterations 0
rho max/min : 0.83124 / 0.710718
time step continuity errors : sum local = 2.48233e-11, global = 7.86682e-12, cumulative = 3.81318e-10
max/min FaceAcCourant: 0.111754/0.0280849
max/min Maf: 0.0565278/0
max/min kappa: 0.966865/0
ExecutionTime = 1.09 s  ClockTime = 1 s

Mean and max Acoustic Courant Numbers = 0.0474927 0.111754
Courant Number max : 0.0126265 velocity magnitude: 19.2554
Time = 6.4e-05

diagonal:  Solving for rho, Initial residual = 0, Final residual = 0, No Iterations 0
rho max/min : 0.83124 / 0.710718
DILUPBiCG:  Solving for h, Initial residual = 0.0097626, Final residual = 5.82566e-11, No Iterations 1
max/min T: 295.478/282.536
DILUPBiCG:  Solving for p, Initial residual = 0.00128984, Final residual = 1.87265e-10, No Iterations 2
max(U): (18.9954 0.00418963 2.13188e-32)
max/min p: 68970/58970
diagonal:  Solving for rho, Initial residual = 0, Final residual = 0, No Iterations 0
rho max/min : 0.83124 / 0.710718
time step continuity errors : sum local = 2.52822e-11, global = 5.27209e-12, cumulative = 3.8659e-10
max/min FaceAcCourant: 0.111754/0.0280846
max/min Maf: 0.0565652/0
max/min kappa: 0.966611/0
ExecutionTime = 1.1 s  ClockTime = 1 s

Mean and max Acoustic Courant Numbers = 0.0474975 0.111754
Courant Number max : 0.0126244 velocity magnitude: 19.2522
Time = 6.5e-05

diagonal:  Solving for rho, Initial residual = 0, Final residual = 0, No Iterations 0
rho max/min : 0.83124 / 0.710718
DILUPBiCG:  Solving for h, Initial residual = 0.00958982, Final residual = 5.13302e-11, No Iterations 1
max/min T: 295.489/282.531
DILUPBiCG:  Solving for p, Initial residual = 0.00129148, Final residual = 1.89716e-10, No Iterations 2
max(U): (18.9897 0.00411004 2.13188e-32)
max/min p: 68970/58970
diagonal:  Solving for rho, Initial residual = 0, Final residual = 0, No Iterations 0
rho max/min : 0.83124 / 0.710718
time step continuity errors : sum local = 2.55496e-11, global = 2.35171e-12, cumulative = 3.88942e-10
max/min FaceAcCourant: 0.111754/0.0280844
max/min Maf: 0.0566012/0
max/min kappa: 0.96642/0
ExecutionTime = 1.12 s  ClockTime = 1 s

Mean and max Acoustic Courant Numbers = 0.0475023 0.111754
Courant Number max : 0.0126225 velocity magnitude: 19.2492
Time = 6.6e-05

diagonal:  Solving for rho, Initial residual = 0, Final residual = 0, No Iterations 0
rho max/min : 0.83124 / 0.710718
DILUPBiCG:  Solving for h, Initial residual = 0.00942202, Final residual = 4.58175e-11, No Iterations 1
max/min T: 295.499/282.527
DILUPBiCG:  Solving for p, Initial residual = 0.00129435, Final residual = 1.85738e-10, No Iterations 2
max(U): (18.984 0.00405292 2.13188e-32)
max/min p: 68970/58970
diagonal:  Solving for rho, Initial residual = 0, Final residual = 0, No Iterations 0
rho max/min : 0.83124 / 0.710718
time step continuity errors : sum local = 2.49525e-11, global = 1.38751e-12, cumulative = 3.9033e-10
max/min FaceAcCourant: 0.111754/0.0280842
max/min Maf: 0.0566356/0
max/min kappa: 0.966784/0
ExecutionTime = 1.14 s  ClockTime = 1 s

Mean and max Acoustic Courant Numbers = 0.0475071 0.111754
Courant Number max : 0.0126219 velocity magnitude: 19.2484
Time = 6.7e-05

diagonal:  Solving for rho, Initial residual = 0, Final residual = 0, No Iterations 0
rho max/min : 0.83124 / 0.710718
DILUPBiCG:  Solving for h, Initial residual = 0.00926488, Final residual = 3.95828e-11, No Iterations 1
max/min T: 295.508/282.523
DILUPBiCG:  Solving for p, Initial residual = 0.00129929, Final residual = 1.94671e-10, No Iterations 2
max(U): (18.9784 0.00406583 2.13188e-32)
max/min p: 68970/58970
diagonal:  Solving for rho, Initial residual = 0, Final residual = 0, No Iterations 0
rho max/min : 0.83124 / 0.710718
time step continuity errors : sum local = 2.60879e-11, global = 1.16396e-11, cumulative = 4.01969e-10
max/min FaceAcCourant: 0.111754/0.028084
max/min Maf: 0.0566664/0
max/min kappa: 0.967068/0
ExecutionTime = 1.16 s  ClockTime = 1 s

Mean and max Acoustic Courant Numbers = 0.0475118 0.111754
Courant Number max : 0.0126284 velocity magnitude: 19.2583
Time = 6.8e-05

diagonal:  Solving for rho, Initial residual = 0, Final residual = 0, No Iterations 0
rho max/min : 0.83124 / 0.710718
DILUPBiCG:  Solving for h, Initial residual = 0.00911591, Final residual = 3.8632e-11, No Iterations 1
max/min T: 295.515/282.521
DILUPBiCG:  Solving for p, Initial residual = 0.00130424, Final residual = 1.41249e-10, No Iterations 2
max(U): (18.9823 0.00378824 2.13188e-32)
max/min p: 68970/58970
diagonal:  Solving for rho, Initial residual = 0, Final residual = 0, No Iterations 0
rho max/min : 0.83124 / 0.710718
time step continuity errors : sum local = 1.88817e-11, global = 6.71595e-12, cumulative = 4.08685e-10
max/min FaceAcCourant: 0.111754/0.0280839
max/min Maf: 0.0566882/0
max/min kappa: 0.967265/0
ExecutionTime = 1.18 s  ClockTime = 1 s

Mean and max Acoustic Courant Numbers = 0.0475166 0.111754
Courant Number max : 0.0126329 velocity magnitude: 19.2651
Time = 6.9e-05

diagonal:  Solving for rho, Initial residual = 0, Final residual = 0, No Iterations 0
rho max/min : 0.83124 / 0.710718
DILUPBiCG:  Solving for h, Initial residual = 0.00896984, Final residual = 3.85401e-11, No Iterations 1
max/min T: 295.52/282.52
DILUPBiCG:  Solving for p, Initial residual = 0.00130864, Final residual = 1.70921e-10, No Iterations 2
max(U): (18.9905 0.00385019 2.13188e-32)
max/min p: 68970/58970
diagonal:  Solving for rho, Initial residual = 0, Final residual = 0, No Iterations 0
rho max/min : 0.83124 / 0.710718
time step continuity errors : sum local = 2.27907e-11, global = 9.50776e-12, cumulative = 4.18193e-10
max/min FaceAcCourant: 0.111754/0.0280838
max/min Maf: 0.0567016/0
max/min kappa: 0.967442/0
ExecutionTime = 1.21 s  ClockTime = 1 s

Mean and max Acoustic Courant Numbers = 0.0475213 0.111754
Courant Number max : 0.0126355 velocity magnitude: 19.2691
Time = 7e-05

diagonal:  Solving for rho, Initial residual = 0, Final residual = 0, No Iterations 0
rho max/min : 0.83124 / 0.710718
DILUPBiCG:  Solving for h, Initial residual = 0.00882638, Final residual = 3.9262e-11, No Iterations 1
max/min T: 295.525/282.519
DILUPBiCG:  Solving for p, Initial residual = 0.00131276, Final residual = 1.8549e-10, No Iterations 2
max(U): (18.9976 0.0039101 2.13188e-32)
max/min p: 68970/58970
diagonal:  Solving for rho, Initial residual = 0, Final residual = 0, No Iterations 0
rho max/min : 0.83124 / 0.710718
time step continuity errors : sum local = 2.46707e-11, global = 1.0812e-11, cumulative = 4.29005e-10
max/min FaceAcCourant: 0.111754/0.0280838
max/min Maf: 0.0567125/0
max/min kappa: 0.967598/0
ExecutionTime = 1.22 s  ClockTime = 1 s

Mean and max Acoustic Courant Numbers = 0.047526 0.111754
Courant Number max : 0.0126376 velocity magnitude: 19.2723
Time = 7.1e-05

diagonal:  Solving for rho, Initial residual = 0, Final residual = 0, No Iterations 0
rho max/min : 0.83124 / 0.710718
DILUPBiCG:  Solving for h, Initial residual = 0.00868678, Final residual = 4.09902e-11, No Iterations 1
max/min T: 295.529/282.519
DILUPBiCG:  Solving for p, Initial residual = 0.0013164, Final residual = 1.78038e-10, No Iterations 2
max(U): (19.0036 0.00396084 2.13188e-32)
max/min p: 68970/58970
diagonal:  Solving for rho, Initial residual = 0, Final residual = 0, No Iterations 0
rho max/min : 0.83124 / 0.710718
time step continuity errors : sum local = 2.36192e-11, global = 6.98279e-12, cumulative = 4.35988e-10
max/min FaceAcCourant: 0.111754/0.0280838
max/min Maf: 0.0567197/0
max/min kappa: 0.967733/0
ExecutionTime = 1.24 s  ClockTime = 1 s

Mean and max Acoustic Courant Numbers = 0.0475307 0.111754
Courant Number max : 0.0126388 velocity magnitude: 19.2742
Time = 7.2e-05

diagonal:  Solving for rho, Initial residual = 0, Final residual = 0, No Iterations 0
rho max/min : 0.83124 / 0.710718
DILUPBiCG:  Solving for h, Initial residual = 0.00855475, Final residual = 3.86756e-11, No Iterations 1
max/min T: 295.532/282.519
DILUPBiCG:  Solving for p, Initial residual = 0.00131989, Final residual = 1.80209e-10, No Iterations 2
max(U): (19.0083 0.00400099 2.13188e-32)
max/min p: 68970/58970
diagonal:  Solving for rho, Initial residual = 0, Final residual = 0, No Iterations 0
rho max/min : 0.83124 / 0.710718
time step continuity errors : sum local = 2.3846e-11, global = 4.55518e-12, cumulative = 4.40543e-10
max/min FaceAcCourant: 0.111754/0.0280838
max/min Maf: 0.0567232/0
max/min kappa: 0.967841/0
ExecutionTime = 1.25 s  ClockTime = 1 s

Mean and max Acoustic Courant Numbers = 0.0475354 0.111754
Courant Number max : 0.0126393 velocity magnitude: 19.2749
Time = 7.3e-05

diagonal:  Solving for rho, Initial residual = 0, Final residual = 0, No Iterations 0
rho max/min : 0.83124 / 0.710718
DILUPBiCG:  Solving for h, Initial residual = 0.00842773, Final residual = 3.38669e-11, No Iterations 1
max/min T: 295.535/282.519
DILUPBiCG:  Solving for p, Initial residual = 0.00132384, Final residual = 1.91837e-10, No Iterations 2
max(U): (19.0117 0.00403025 2.13188e-32)
max/min p: 68970/58970
diagonal:  Solving for rho, Initial residual = 0, Final residual = 0, No Iterations 0
rho max/min : 0.83124 / 0.710718
time step continuity errors : sum local = 2.53193e-11, global = 1.75467e-12, cumulative = 4.42298e-10
max/min FaceAcCourant: 0.111754/0.0280838
max/min Maf: 0.0567229/0
max/min kappa: 0.967914/0
ExecutionTime = 1.27 s  ClockTime = 1 s

Mean and max Acoustic Courant Numbers = 0.0475402 0.111754
Courant Number max : 0.0126389 velocity magnitude: 19.2743
Time = 7.4e-05

diagonal:  Solving for rho, Initial residual = 0, Final residual = 0, No Iterations 0
rho max/min : 0.83124 / 0.710718
DILUPBiCG:  Solving for h, Initial residual = 0.00830448, Final residual = 2.92286e-11, No Iterations 1
max/min T: 295.537/282.521
DILUPBiCG:  Solving for p, Initial residual = 0.0013282, Final residual = 1.99734e-10, No Iterations 2
max(U): (19.0137 0.0040467 2.13188e-32)
max/min p: 68970/58970
diagonal:  Solving for rho, Initial residual = 0, Final residual = 0, No Iterations 0
rho max/min : 0.83124 / 0.710718
time step continuity errors : sum local = 2.62932e-11, global = 7.59311e-14, cumulative = 4.42374e-10
max/min FaceAcCourant: 0.111754/0.0280839
max/min Maf: 0.0567187/0
max/min kappa: 0.967939/0
ExecutionTime = 1.29 s  ClockTime = 1 s

Mean and max Acoustic Courant Numbers = 0.0475449 0.111754
Courant Number max : 0.0126376 velocity magnitude: 19.2723
Time = 7.5e-05

diagonal:  Solving for rho, Initial residual = 0, Final residual = 0, No Iterations 0
rho max/min : 0.83124 / 0.710718
DILUPBiCG:  Solving for h, Initial residual = 0.008185, Final residual = 2.61385e-11, No Iterations 1
max/min T: 295.539/282.522
DILUPBiCG:  Solving for p, Initial residual = 0.00133247, Final residual = 1.4499e-10, No Iterations 2
max(U): (19.0144 0.00404651 2.13188e-32)
max/min p: 68970/58970
diagonal:  Solving for rho, Initial residual = 0, Final residual = 0, No Iterations 0
rho max/min : 0.83124 / 0.710718
time step continuity errors : sum local = 1.90381e-11, global = 5.46498e-12, cumulative = 4.47838e-10
max/min FaceAcCourant: 0.111754/0.0280839
max/min Maf: 0.0567104/0
max/min kappa: 0.967862/0
ExecutionTime = 1.3 s  ClockTime = 1 s

Mean and max Acoustic Courant Numbers = 0.0475497 0.111754
Courant Number max : 0.0126354 velocity magnitude: 19.269
Time = 7.6e-05

diagonal:  Solving for rho, Initial residual = 0, Final residual = 0, No Iterations 0
rho max/min : 0.83124 / 0.710718
DILUPBiCG:  Solving for h, Initial residual = 0.00806845, Final residual = 2.51238e-11, No Iterations 1
max/min T: 295.541/282.524
DILUPBiCG:  Solving for p, Initial residual = 0.00133638, Final residual = 1.22451e-10, No Iterations 2
max(U): (19.0138 0.00402885 2.13188e-32)
max/min p: 68970/58970
diagonal:  Solving for rho, Initial residual = 0, Final residual = 0, No Iterations 0
rho max/min : 0.83124 / 0.710718
time step continuity errors : sum local = 1.60383e-11, global = 5.04288e-12, cumulative = 4.52881e-10
max/min FaceAcCourant: 0.111754/0.028084
max/min Maf: 0.0566982/0
max/min kappa: 0.967786/0
ExecutionTime = 1.32 s  ClockTime = 1 s

Mean and max Acoustic Courant Numbers = 0.0475545 0.111754
Courant Number max : 0.0126324 velocity magnitude: 19.2643
Time = 7.7e-05

diagonal:  Solving for rho, Initial residual = 0, Final residual = 0, No Iterations 0
rho max/min : 0.83124 / 0.710718
DILUPBiCG:  Solving for h, Initial residual = 0.00795473, Final residual = 2.51443e-11, No Iterations 1
max/min T: 295.542/282.525
DILUPBiCG:  Solving for p, Initial residual = 0.00133989, Final residual = 1.48279e-10, No Iterations 2
max(U): (19.0126 0.0039939 2.13188e-32)
max/min p: 68970/58970
diagonal:  Solving for rho, Initial residual = 0, Final residual = 0, No Iterations 0
rho max/min : 0.83124 / 0.710718
time step continuity errors : sum local = 1.93721e-11, global = 8.48789e-12, cumulative = 4.61369e-10
max/min FaceAcCourant: 0.111754/0.0280841
max/min Maf: 0.0566812/0
max/min kappa: 0.967489/0
ExecutionTime = 1.34 s  ClockTime = 1 s

Mean and max Acoustic Courant Numbers = 0.0475592 0.111754
Courant Number max : 0.0126282 velocity magnitude: 19.258
Time = 7.8e-05

diagonal:  Solving for rho, Initial residual = 0, Final residual = 0, No Iterations 0
rho max/min : 0.83124 / 0.710718
DILUPBiCG:  Solving for h, Initial residual = 0.00784259, Final residual = 2.61169e-11, No Iterations 1
max/min T: 295.543/282.522
DILUPBiCG:  Solving for p, Initial residual = 0.00134301, Final residual = 1.6788e-10, No Iterations 2
max(U): (19.0105 0.00394359 2.13188e-32)
max/min p: 68970/58970
diagonal:  Solving for rho, Initial residual = 0, Final residual = 0, No Iterations 0
rho max/min : 0.83124 / 0.710718
time step continuity errors : sum local = 2.1877e-11, global = 9.1457e-12, cumulative = 4.70515e-10
max/min FaceAcCourant: 0.111754/0.0280839
max/min Maf: 0.0566571/0
max/min kappa: 0.967218/0
ExecutionTime = 1.36 s  ClockTime = 1 s

Mean and max Acoustic Courant Numbers = 0.0475639 0.111754
Courant Number max : 0.0126225 velocity magnitude: 19.2493
Time = 7.9e-05

diagonal:  Solving for rho, Initial residual = 0, Final residual = 0, No Iterations 0
rho max/min : 0.83124 / 0.710718
DILUPBiCG:  Solving for h, Initial residual = 0.00772957, Final residual = 2.53835e-11, No Iterations 1
max/min T: 295.548/282.519
DILUPBiCG:  Solving for p, Initial residual = 0.00134562, Final residual = 1.90275e-10, No Iterations 2
max(U): (19.0074 0.00387952 2.13188e-32)
max/min p: 68970/58970
diagonal:  Solving for rho, Initial residual = 0, Final residual = 0, No Iterations 0
rho max/min : 0.83124 / 0.710718
time step continuity errors : sum local = 2.47317e-11, global = 1.15805e-11, cumulative = 4.82095e-10
max/min FaceAcCourant: 0.111754/0.0280838
max/min Maf: 0.0566631/0
max/min kappa: 0.967049/0
ExecutionTime = 1.38 s  ClockTime = 1 s

Mean and max Acoustic Courant Numbers = 0.0475686 0.111754
Courant Number max : 0.0126235 velocity magnitude: 19.2509
Time = 8e-05

diagonal:  Solving for rho, Initial residual = 0, Final residual = 0, No Iterations 0
rho max/min : 0.83124 / 0.710718
DILUPBiCG:  Solving for h, Initial residual = 0.00762152, Final residual = 2.65786e-11, No Iterations 1
max/min T: 295.553/282.516
DILUPBiCG:  Solving for p, Initial residual = 0.0013483, Final residual = 1.76032e-10, No Iterations 2
max(U): (19.0033 0.00380321 2.13188e-32)
max/min p: 68970/58970
diagonal:  Solving for rho, Initial residual = 0, Final residual = 0, No Iterations 0
rho max/min : 0.83124 / 0.710718
time step continuity errors : sum local = 2.28213e-11, global = 5.37966e-12, cumulative = 4.87475e-10
max/min FaceAcCourant: 0.111754/0.0280836
max/min Maf: 0.0566335/0
max/min kappa: 0.966971/0
ExecutionTime = 1.4 s  ClockTime = 1 s

Mean and max Acoustic Courant Numbers = 0.0475733 0.111754
Courant Number max : 0.0126166 velocity magnitude: 19.2403
Time = 8.1e-05

diagonal:  Solving for rho, Initial residual = 0, Final residual = 0, No Iterations 0
rho max/min : 0.83124 / 0.710718
DILUPBiCG:  Solving for h, Initial residual = 0.00751974, Final residual = 2.54151e-11, No Iterations 1
max/min T: 295.558/282.514
DILUPBiCG:  Solving for p, Initial residual = 0.0013506, Final residual = 1.79486e-10, No Iterations 2
max(U): (18.9984 0.00371624 2.13188e-32)
max/min p: 68970/58970
diagonal:  Solving for rho, Initial residual = 0, Final residual = 0, No Iterations 0
rho max/min : 0.83124 / 0.710718
time step continuity errors : sum local = 2.32085e-11, global = 3.16372e-12, cumulative = 4.90639e-10
max/min FaceAcCourant: 0.111754/0.0280835
max/min Maf: 0.0566066/0
max/min kappa: 0.966796/0
ExecutionTime = 1.42 s  ClockTime = 1 s

Mean and max Acoustic Courant Numbers = 0.0475781 0.111754
Courant Number max : 0.0126102 velocity magnitude: 19.2306
Time = 8.2e-05

diagonal:  Solving for rho, Initial residual = 0, Final residual = 0, No Iterations 0
rho max/min : 0.83124 / 0.710718
DILUPBiCG:  Solving for h, Initial residual = 0.00741994, Final residual = 2.21066e-11, No Iterations 1
max/min T: 295.562/282.511
DILUPBiCG:  Solving for p, Initial residual = 0.0013527, Final residual = 1.41276e-10, No Iterations 2
max(U): (18.9928 0.00362532 2.13188e-32)
max/min p: 68970/58970
diagonal:  Solving for rho, Initial residual = 0, Final residual = 0, No Iterations 0
rho max/min : 0.83124 / 0.710718
time step continuity errors : sum local = 1.822e-11, global = 6.4016e-12, cumulative = 4.9704e-10
max/min FaceAcCourant: 0.111754/0.0280834
max/min Maf: 0.0565807/0
max/min kappa: 0.966567/0
ExecutionTime = 1.44 s  ClockTime = 1 s

Mean and max Acoustic Courant Numbers = 0.0475828 0.111754
Courant Number max : 0.0126041 velocity magnitude: 19.2213
Time = 8.3e-05

diagonal:  Solving for rho, Initial residual = 0, Final residual = 0, No Iterations 0
rho max/min : 0.83124 / 0.710718
DILUPBiCG:  Solving for h, Initial residual = 0.00732198, Final residual = 2.02725e-11, No Iterations 1
max/min T: 295.565/282.509
DILUPBiCG:  Solving for p, Initial residual = 0.00135483, Final residual = 1.06144e-10, No Iterations 2
max(U): (18.9866 0.00353008 2.13188e-32)
max/min p: 68970/58970
diagonal:  Solving for rho, Initial residual = 0, Final residual = 0, No Iterations 0
rho max/min : 0.83124 / 0.710718
time step continuity errors : sum local = 1.36532e-11, global = 3.42871e-12, cumulative = 5.00469e-10
max/min FaceAcCourant: 0.111754/0.0280833
max/min Maf: 0.0565566/0
max/min kappa: 0.966212/0
ExecutionTime = 1.46 s  ClockTime = 1 s

Mean and max Acoustic Courant Numbers = 0.0475876 0.111754
Courant Number max : 0.012598 velocity magnitude: 19.212
Time = 8.4e-05

diagonal:  Solving for rho, Initial residual = 0, Final residual = 0, No Iterations 0
rho max/min : 0.83124 / 0.710718
DILUPBiCG:  Solving for h, Initial residual = 0.00722404, Final residual = 1.84134e-11, No Iterations 1
max/min T: 295.568/282.507
DILUPBiCG:  Solving for p, Initial residual = 0.0013571, Final residual = 9.81172e-11, No Iterations 2
max(U): (18.9801 0.00342781 2.13188e-32)
max/min p: 68970/58970
diagonal:  Solving for rho, Initial residual = 0, Final residual = 0, No Iterations 0
rho max/min : 0.83124 / 0.710718
time step continuity errors : sum local = 1.25873e-11, global = 3.52113e-12, cumulative = 5.0399e-10
max/min FaceAcCourant: 0.111754/0.0280832
max/min Maf: 0.0565337/0
max/min kappa: 0.965853/0
ExecutionTime = 1.47 s  ClockTime = 1 s

Mean and max Acoustic Courant Numbers = 0.0475924 0.111754
Courant Number max : 0.0125919 velocity magnitude: 19.2026
Time = 8.5e-05

diagonal:  Solving for rho, Initial residual = 0, Final residual = 0, No Iterations 0
rho max/min : 0.83124 / 0.710718
DILUPBiCG:  Solving for h, Initial residual = 0.00712819, Final residual = 1.8407e-11, No Iterations 1
max/min T: 295.57/282.504
DILUPBiCG:  Solving for p, Initial residual = 0.00135933, Final residual = 1.11029e-10, No Iterations 2
max(U): (18.9759 0.00331151 2.13188e-32)
max/min p: 68970/58970
diagonal:  Solving for rho, Initial residual = 0, Final residual = 0, No Iterations 0
rho max/min : 0.83124 / 0.710718
time step continuity errors : sum local = 1.42059e-11, global = 5.44904e-12, cumulative = 5.09439e-10
max/min FaceAcCourant: 0.111754/0.0280831
max/min Maf: 0.056511/0
max/min kappa: 0.965497/0
ExecutionTime = 1.49 s  ClockTime = 1 s

Mean and max Acoustic Courant Numbers = 0.0475971 0.111754
Courant Number max : 0.0125871 velocity magnitude: 19.1953
Time = 8.6e-05

diagonal:  Solving for rho, Initial residual = 0, Final residual = 0, No Iterations 0
rho max/min : 0.83124 / 0.710718
DILUPBiCG:  Solving for h, Initial residual = 0.00703446, Final residual = 1.94164e-11, No Iterations 1
max/min T: 295.572/282.502
DILUPBiCG:  Solving for p, Initial residual = 0.00136259, Final residual = 1.51955e-10, No Iterations 2
max(U): (18.9761 0.00320774 2.13188e-32)
max/min p: 68970/58970
diagonal:  Solving for rho, Initial residual = 0, Final residual = 0, No Iterations 0
rho max/min : 0.83124 / 0.710718
time step continuity errors : sum local = 1.93911e-11, global = 8.32932e-12, cumulative = 5.17769e-10
max/min FaceAcCourant: 0.111754/0.0280829
max/min Maf: 0.0564894/0
max/min kappa: 0.965158/0
ExecutionTime = 1.5 s  ClockTime = 1 s

Mean and max Acoustic Courant Numbers = 0.0476019 0.111754
Courant Number max : 0.012586 velocity magnitude: 19.1937
Time = 8.7e-05

diagonal:  Solving for rho, Initial residual = 0, Final residual = 0, No Iterations 0
rho max/min : 0.83124 / 0.710718
DILUPBiCG:  Solving for h, Initial residual = 0.00694232, Final residual = 1.87235e-11, No Iterations 1
max/min T: 295.573/282.499
[...]
max/min kappa: 0.965672/0
ExecutionTime = 4.06 s  ClockTime = 4 s

Mean and max Acoustic Courant Numbers = 0.0482777 0.111754
Courant Number max : 0.0125236 velocity magnitude: 19.0984
Time = 0.000229

diagonal:  Solving for rho, Initial residual = 0, Final residual = 0, No Iterations 0
rho max/min : 0.83124 / 0.710718
DILUPBiCG:  Solving for h, Initial residual = 0.00244729, Final residual = 1.20785e-12, No Iterations 1
max/min T: 295.554/282.52
DILUPBiCG:  Solving for p, Initial residual = 0.00218767, Final residual = 6.3926e-11, No Iterations 2
max(U): (18.9886 0.00163678 2.1319e-32)
max/min p: 68970/58970
diagonal:  Solving for rho, Initial residual = 0, Final residual = 0, No Iterations 0
rho max/min : 0.83124 / 0.710718
time step continuity errors : sum local = 5.0793e-12, global = 1.37112e-12, cumulative = 9.52017e-10
max/min FaceAcCourant: 0.111754/0.0280838
max/min Maf: 0.0563787/0
max/min kappa: 0.965677/0
ExecutionTime = 4.08 s  ClockTime = 4 s

Mean and max Acoustic Courant Numbers = 0.0482825 0.111754
Courant Number max : 0.0125234 velocity magnitude: 19.0981
Time = 0.00023

diagonal:  Solving for rho, Initial residual = 0, Final residual = 0, No Iterations 0
rho max/min : 0.83124 / 0.710718
DILUPBiCG:  Solving for h, Initial residual = 0.00243651, Final residual = 1.16605e-12, No Iterations 1
max/min T: 295.554/282.52
DILUPBiCG:  Solving for p, Initial residual = 0.0021971, Final residual = 8.13515e-11, No Iterations 2
max(U): (18.9887 0.00163303 2.13188e-32)
max/min p: 68970/58970
diagonal:  Solving for rho, Initial residual = 0, Final residual = 0, No Iterations 0
rho max/min : 0.83124 / 0.710718
time step continuity errors : sum local = 6.43627e-12, global = 2.33391e-12, cumulative = 9.54351e-10
max/min FaceAcCourant: 0.111754/0.0280838
max/min Maf: 0.0563787/0
max/min kappa: 0.965682/0
ExecutionTime = 4.09 s  ClockTime = 4 s

Mean and max Acoustic Courant Numbers = 0.0482873 0.111754
Courant Number max : 0.0125232 velocity magnitude: 19.0979
Time = 0.000231

diagonal:  Solving for rho, Initial residual = 0, Final residual = 0, No Iterations 0
rho max/min : 0.83124 / 0.710718
DILUPBiCG:  Solving for h, Initial residual = 0.00242579, Final residual = 1.52003e-12, No Iterations 1
max/min T: 295.554/282.52
DILUPBiCG:  Solving for p, Initial residual = 0.0022065, Final residual = 1.16091e-10, No Iterations 2
max(U): (18.9888 0.00162913 2.13188e-32)
max/min p: 68970/58970
diagonal:  Solving for rho, Initial residual = 0, Final residual = 0, No Iterations 0
rho max/min : 0.83124 / 0.710718
time step continuity errors : sum local = 9.14577e-12, global = 1.96936e-12, cumulative = 9.5632e-10
max/min FaceAcCourant: 0.111754/0.0280838
max/min Maf: 0.0563788/0
max/min kappa: 0.965687/0
ExecutionTime = 4.11 s  ClockTime = 4 s

Mean and max Acoustic Courant Numbers = 0.048292 0.111754
Courant Number max : 0.0125231 velocity magnitude: 19.0978
Time = 0.000232

diagonal:  Solving for rho, Initial residual = 0, Final residual = 0, No Iterations 0
rho max/min : 0.83124 / 0.710718
DILUPBiCG:  Solving for h, Initial residual = 0.00241501, Final residual = 1.57587e-12, No Iterations 1
max/min T: 295.554/282.52
DILUPBiCG:  Solving for p, Initial residual = 0.00221594, Final residual = 9.13098e-11, No Iterations 2
max(U): (18.989 0.00162508 2.13188e-32)
max/min p: 68970/58970
diagonal:  Solving for rho, Initial residual = 0, Final residual = 0, No Iterations 0
rho max/min : 0.83124 / 0.710718
time step continuity errors : sum local = 7.1629e-12, global = 2.77696e-12, cumulative = 9.59097e-10
max/min FaceAcCourant: 0.111754/0.0280838
max/min Maf: 0.0563789/0
max/min kappa: 0.965691/0
ExecutionTime = 4.12 s  ClockTime = 4 s

Mean and max Acoustic Courant Numbers = 0.0482967 0.111754
Courant Number max : 0.0125231 velocity magnitude: 19.0977
Time = 0.000233

diagonal:  Solving for rho, Initial residual = 0, Final residual = 0, No Iterations 0
rho max/min : 0.83124 / 0.710718
DILUPBiCG:  Solving for h, Initial residual = 0.00240423, Final residual = 1.47742e-12, No Iterations 1
max/min T: 295.554/282.521
DILUPBiCG:  Solving for p, Initial residual = 0.00222546, Final residual = 8.5079e-11, No Iterations 2
max(U): (18.9891 0.00162088 2.13188e-32)
max/min p: 68970/58970
diagonal:  Solving for rho, Initial residual = 0, Final residual = 0, No Iterations 0
rho max/min : 0.83124 / 0.710718
time step continuity errors : sum local = 6.64553e-12, global = 2.75235e-12, cumulative = 9.61849e-10
max/min FaceAcCourant: 0.111754/0.0280839
max/min Maf: 0.056379/0
max/min kappa: 0.965695/0
ExecutionTime = 4.15 s  ClockTime = 4 s

Mean and max Acoustic Courant Numbers = 0.0483015 0.111754
Courant Number max : 0.012523 velocity magnitude: 19.0976
Time = 0.000234

diagonal:  Solving for rho, Initial residual = 0, Final residual = 0, No Iterations 0
rho max/min : 0.83124 / 0.710718
DILUPBiCG:  Solving for h, Initial residual = 0.00239349, Final residual = 1.41053e-12, No Iterations 1
max/min T: 295.554/282.521
DILUPBiCG:  Solving for p, Initial residual = 0.00223507, Final residual = 8.63811e-11, No Iterations 2
max(U): (18.9892 0.00161651 2.13188e-32)
max/min p: 68970/58970
diagonal:  Solving for rho, Initial residual = 0, Final residual = 0, No Iterations 0
rho max/min : 0.83124 / 0.710718
time step continuity errors : sum local = 6.71816e-12, global = 2.81313e-12, cumulative = 9.64662e-10
max/min FaceAcCourant: 0.111754/0.0280839
max/min Maf: 0.0563791/0
max/min kappa: 0.965699/0
ExecutionTime = 4.17 s  ClockTime = 4 s

Mean and max Acoustic Courant Numbers = 0.0483062 0.111754
Courant Number max : 0.0125229 velocity magnitude: 19.0975
Time = 0.000235

diagonal:  Solving for rho, Initial residual = 0, Final residual = 0, No Iterations 0
rho max/min : 0.83124 / 0.710718
DILUPBiCG:  Solving for h, Initial residual = 0.00238284, Final residual = 1.34339e-12, No Iterations 1
max/min T: 295.554/282.521
DILUPBiCG:  Solving for p, Initial residual = 0.00224478, Final residual = 5.77609e-11, No Iterations 2
max(U): (18.9893 0.00161196 2.13188e-32)
max/min p: 68970/58970
diagonal:  Solving for rho, Initial residual = 0, Final residual = 0, No Iterations 0
rho max/min : 0.83124 / 0.710718
time step continuity errors : sum local = 4.47277e-12, global = 1.19401e-12, cumulative = 9.65856e-10
max/min FaceAcCourant: 0.111754/0.0280839
max/min Maf: 0.0563792/0
max/min kappa: 0.965703/0
ExecutionTime = 4.19 s  ClockTime = 4 s

Mean and max Acoustic Courant Numbers = 0.048311 0.111754
Courant Number max : 0.0125229 velocity magnitude: 19.0974
Time = 0.000236

diagonal:  Solving for rho, Initial residual = 0, Final residual = 0, No Iterations 0
rho max/min : 0.83124 / 0.710718
DILUPBiCG:  Solving for h, Initial residual = 0.00237234, Final residual = 1.26319e-12, No Iterations 1
max/min T: 295.553/282.521
DILUPBiCG:  Solving for p, Initial residual = 0.00225462, Final residual = 6.15234e-11, No Iterations 2
max(U): (18.9894 0.00160722 2.13188e-32)
max/min p: 68970/58970
diagonal:  Solving for rho, Initial residual = 0, Final residual = 0, No Iterations 0
rho max/min : 0.83124 / 0.710718
time step continuity errors : sum local = 4.74331e-12, global = 8.38852e-13, cumulative = 9.66695e-10
max/min FaceAcCourant: 0.111754/0.0280839
max/min Maf: 0.0563793/0
max/min kappa: 0.965706/0
ExecutionTime = 4.21 s  ClockTime = 4 s

Mean and max Acoustic Courant Numbers = 0.0483158 0.111754
Courant Number max : 0.0125228 velocity magnitude: 19.0973
Time = 0.000237

diagonal:  Solving for rho, Initial residual = 0, Final residual = 0, No Iterations 0
rho max/min : 0.83124 / 0.710718
DILUPBiCG:  Solving for h, Initial residual = 0.00236203, Final residual = 1.22017e-12, No Iterations 1
max/min T: 295.553/282.522
DILUPBiCG:  Solving for p, Initial residual = 0.00226459, Final residual = 6.49914e-11, No Iterations 2
max(U): (18.9896 0.00160226 2.13188e-32)
max/min p: 68970/58970
diagonal:  Solving for rho, Initial residual = 0, Final residual = 0, No Iterations 0
rho max/min : 0.83124 / 0.710718
time step continuity errors : sum local = 4.98862e-12, global = 1.10841e-12, cumulative = 9.67804e-10
max/min FaceAcCourant: 0.111754/0.0280839
max/min Maf: 0.0563793/0
max/min kappa: 0.96571/0
ExecutionTime = 4.23 s  ClockTime = 4 s

Mean and max Acoustic Courant Numbers = 0.0483206 0.111754
Courant Number max : 0.0125227 velocity magnitude: 19.0971
Time = 0.000238

diagonal:  Solving for rho, Initial residual = 0, Final residual = 0, No Iterations 0
rho max/min : 0.83124 / 0.710718
DILUPBiCG:  Solving for h, Initial residual = 0.00235192, Final residual = 1.11528e-12, No Iterations 1
max/min T: 295.553/282.522
DILUPBiCG:  Solving for p, Initial residual = 0.0022747, Final residual = 7.4357e-11, No Iterations 2
max(U): (18.9897 0.00159708 2.13188e-32)
max/min p: 68970/58970
diagonal:  Solving for rho, Initial residual = 0, Final residual = 0, No Iterations 0
rho max/min : 0.83124 / 0.710718
time step continuity errors : sum local = 5.68222e-12, global = 1.76908e-12, cumulative = 9.69573e-10
max/min FaceAcCourant: 0.111754/0.0280839
max/min Maf: 0.0563794/0
max/min kappa: 0.965713/0
ExecutionTime = 4.24 s  ClockTime = 4 s

Mean and max Acoustic Courant Numbers = 0.0483254 0.111754
Courant Number max : 0.0125227 velocity magnitude: 19.097
Time = 0.000239

diagonal:  Solving for rho, Initial residual = 0, Final residual = 0, No Iterations 0
rho max/min : 0.83124 / 0.710718
DILUPBiCG:  Solving for h, Initial residual = 0.00234198, Final residual = 1.17203e-12, No Iterations 1
max/min T: 295.553/282.522
DILUPBiCG:  Solving for p, Initial residual = 0.00228493, Final residual = 1.36197e-10, No Iterations 2
max(U): (18.9898 0.0015917 2.13188e-32)
max/min p: 68970/58970
diagonal:  Solving for rho, Initial residual = 0, Final residual = 0, No Iterations 0
rho max/min : 0.83124 / 0.710718
time step continuity errors : sum local = 1.03615e-11, global = 4.66655e-12, cumulative = 9.74239e-10
max/min FaceAcCourant: 0.111754/0.0280839
max/min Maf: 0.0563795/0
max/min kappa: 0.965716/0
ExecutionTime = 4.26 s  ClockTime = 4 s

Mean and max Acoustic Courant Numbers = 0.0483302 0.111754
Courant Number max : 0.0125226 velocity magnitude: 19.0969
Time = 0.00024

diagonal:  Solving for rho, Initial residual = 0, Final residual = 0, No Iterations 0
rho max/min : 0.83124 / 0.710718
DILUPBiCG:  Solving for h, Initial residual = 0.00233209, Final residual = 1.42487e-12, No Iterations 1
max/min T: 295.553/282.522
DILUPBiCG:  Solving for p, Initial residual = 0.00229521, Final residual = 1.16477e-10, No Iterations 2
max(U): (18.9899 0.00158613 2.13188e-32)
max/min p: 68970/58970
diagonal:  Solving for rho, Initial residual = 0, Final residual = 0, No Iterations 0
rho max/min : 0.83124 / 0.710718
time step continuity errors : sum local = 8.8217e-12, global = 2.69508e-12, cumulative = 9.76934e-10
max/min FaceAcCourant: 0.111754/0.0280839
max/min Maf: 0.0563796/0
max/min kappa: 0.965719/0
ExecutionTime = 4.28 s  ClockTime = 4 s

Mean and max Acoustic Courant Numbers = 0.0483349 0.111754
Courant Number max : 0.0125225 velocity magnitude: 19.0968
Time = 0.000241

diagonal:  Solving for rho, Initial residual = 0, Final residual = 0, No Iterations 0
rho max/min : 0.83124 / 0.710718
DILUPBiCG:  Solving for h, Initial residual = 0.00232214, Final residual = 1.41928e-12, No Iterations 1
max/min T: 295.553/282.523
DILUPBiCG:  Solving for p, Initial residual = 0.00230546, Final residual = 9.02508e-11, No Iterations 2
max(U): (18.99 0.0015804 2.16448e-32)
max/min p: 68970/58970
diagonal:  Solving for rho, Initial residual = 0, Final residual = 0, No Iterations 0
rho max/min : 0.83124 / 0.710718
time step continuity errors : sum local = 6.80503e-12, global = 2.86682e-12, cumulative = 9.79801e-10
max/min FaceAcCourant: 0.111754/0.028084
max/min Maf: 0.0563796/0
max/min kappa: 0.965723/0
ExecutionTime = 4.29 s  ClockTime = 4 s

Mean and max Acoustic Courant Numbers = 0.0483396 0.111754
Courant Number max : 0.0125224 velocity magnitude: 19.0967
Time = 0.000242

diagonal:  Solving for rho, Initial residual = 0, Final residual = 0, No Iterations 0
rho max/min : 0.83124 / 0.710718
DILUPBiCG:  Solving for h, Initial residual = 0.00231215, Final residual = 1.34246e-12, No Iterations 1
max/min T: 295.552/282.523
DILUPBiCG:  Solving for p, Initial residual = 0.00231573, Final residual = 8.43217e-11, No Iterations 2
max(U): (18.9901 0.00157453 2.14428e-32)
max/min p: 68970/58970
diagonal:  Solving for rho, Initial residual = 0, Final residual = 0, No Iterations 0
rho max/min : 0.83124 / 0.710718
time step continuity errors : sum local = 6.32972e-12, global = 2.54923e-12, cumulative = 9.8235e-10
max/min FaceAcCourant: 0.111754/0.028084
max/min Maf: 0.0563797/0
max/min kappa: 0.965726/0
ExecutionTime = 4.31 s  ClockTime = 4 s

Mean and max Acoustic Courant Numbers = 0.0483444 0.111754
Courant Number max : 0.0125224 velocity magnitude: 19.0966
Time = 0.000243

diagonal:  Solving for rho, Initial residual = 0, Final residual = 0, No Iterations 0
rho max/min : 0.83124 / 0.710718
DILUPBiCG:  Solving for h, Initial residual = 0.00230221, Final residual = 1.24131e-12, No Iterations 1
max/min T: 295.552/282.523
DILUPBiCG:  Solving for p, Initial residual = 0.00232612, Final residual = 5.93413e-11, No Iterations 2
max(U): (18.9902 0.00156853 2.13188e-32)
max/min p: 68970/58970
diagonal:  Solving for rho, Initial residual = 0, Final residual = 0, No Iterations 0
rho max/min : 0.83124 / 0.710718
time step continuity errors : sum local = 4.43463e-12, global = 1.31808e-12, cumulative = 9.83669e-10
max/min FaceAcCourant: 0.111754/0.028084
max/min Maf: 0.0563797/0
max/min kappa: 0.965729/0
ExecutionTime = 4.32 s  ClockTime = 4 s

Mean and max Acoustic Courant Numbers = 0.0483491 0.111754
Courant Number max : 0.0125223 velocity magnitude: 19.0965
Time = 0.000244

diagonal:  Solving for rho, Initial residual = 0, Final residual = 0, No Iterations 0
rho max/min : 0.83124 / 0.710718
DILUPBiCG:  Solving for h, Initial residual = 0.00229234, Final residual = 1.12456e-12, No Iterations 1
max/min T: 295.552/282.523
DILUPBiCG:  Solving for p, Initial residual = 0.00233664, Final residual = 5.95749e-11, No Iterations 2
max(U): (18.9903 0.00156247 2.13188e-32)
max/min p: 68970/58970
diagonal:  Solving for rho, Initial residual = 0, Final residual = 0, No Iterations 0
rho max/min : 0.83124 / 0.710718
time step continuity errors : sum local = 4.43201e-12, global = 1.10734e-12, cumulative = 9.84776e-10
max/min FaceAcCourant: 0.111754/0.028084
max/min Maf: 0.0563798/0
max/min kappa: 0.965733/0
ExecutionTime = 4.34 s  ClockTime = 4 s

Mean and max Acoustic Courant Numbers = 0.0483539 0.111754
Courant Number max : 0.0125223 velocity magnitude: 19.0964
Time = 0.000245

diagonal:  Solving for rho, Initial residual = 0, Final residual = 0, No Iterations 0
rho max/min : 0.83124 / 0.710718
DILUPBiCG:  Solving for h, Initial residual = 0.00228249, Final residual = 1.09504e-12, No Iterations 1
max/min T: 295.552/282.523
DILUPBiCG:  Solving for p, Initial residual = 0.00234729, Final residual = 6.44166e-11, No Iterations 2
max(U): (18.9904 0.00155639 2.13188e-32)
max/min p: 68970/58970
diagonal:  Solving for rho, Initial residual = 0, Final residual = 0, No Iterations 0
rho max/min : 0.83124 / 0.710718
time step continuity errors : sum local = 4.77044e-12, global = 8.95856e-13, cumulative = 9.85672e-10
max/min FaceAcCourant: 0.111754/0.028084
max/min Maf: 0.0563798/0
max/min kappa: 0.965736/0
ExecutionTime = 4.35 s  ClockTime = 4 s

Mean and max Acoustic Courant Numbers = 0.0483587 0.111754
Courant Number max : 0.0125222 velocity magnitude: 19.0963
Time = 0.000246

diagonal:  Solving for rho, Initial residual = 0, Final residual = 0, No Iterations 0
rho max/min : 0.83124 / 0.710718
DILUPBiCG:  Solving for h, Initial residual = 0.00227274, Final residual = 1.14248e-12, No Iterations 1
max/min T: 295.552/282.524
DILUPBiCG:  Solving for p, Initial residual = 0.0023581, Final residual = 7.38627e-11, No Iterations 2
max(U): (18.9905 0.00155034 2.13188e-32)
max/min p: 68970/58970
diagonal:  Solving for rho, Initial residual = 0, Final residual = 0, No Iterations 0
rho max/min : 0.83124 / 0.710718
time step continuity errors : sum local = 5.44497e-12, global = 1.37377e-12, cumulative = 9.87045e-10
max/min FaceAcCourant: 0.111754/0.028084
max/min Maf: 0.0563799/0
max/min kappa: 0.96574/0
ExecutionTime = 4.37 s  ClockTime = 4 s

Mean and max Acoustic Courant Numbers = 0.0483635 0.111754
Courant Number max : 0.0125221 velocity magnitude: 19.0962
Time = 0.000247

diagonal:  Solving for rho, Initial residual = 0, Final residual = 0, No Iterations 0
rho max/min : 0.83124 / 0.710718
DILUPBiCG:  Solving for h, Initial residual = 0.00226317, Final residual = 1.05645e-12, No Iterations 1
max/min T: 295.552/282.524
DILUPBiCG:  Solving for p, Initial residual = 0.00236905, Final residual = 1.00144e-10, No Iterations 2
max(U): (18.9906 0.00154433 2.13188e-32)
max/min p: 68970/58970
diagonal:  Solving for rho, Initial residual = 0, Final residual = 0, No Iterations 0
rho max/min : 0.83124 / 0.710718
time step continuity errors : sum local = 7.34838e-12, global = 2.81541e-12, cumulative = 9.89861e-10
max/min FaceAcCourant: 0.111754/0.028084
max/min Maf: 0.0563799/0
max/min kappa: 0.965744/0
ExecutionTime = 4.4 s  ClockTime = 4 s

Mean and max Acoustic Courant Numbers = 0.0483683 0.111754
Courant Number max : 0.0125221 velocity magnitude: 19.0961
Time = 0.000248

diagonal:  Solving for rho, Initial residual = 0, Final residual = 0, No Iterations 0
rho max/min : 0.83124 / 0.710718
DILUPBiCG:  Solving for h, Initial residual = 0.00225376, Final residual = 1.24914e-12, No Iterations 1
max/min T: 295.551/282.524
DILUPBiCG:  Solving for p, Initial residual = 0.00238014, Final residual = 1.26733e-10, No Iterations 2
max(U): (18.9907 0.00153836 2.13188e-32)
max/min p: 68970/58970
diagonal:  Solving for rho, Initial residual = 0, Final residual = 0, No Iterations 0
rho max/min : 0.83124 / 0.710718
time step continuity errors : sum local = 9.2563e-12, global = 1.72659e-12, cumulative = 9.91587e-10
max/min FaceAcCourant: 0.111754/0.028084
max/min Maf: 0.05638/0
max/min kappa: 0.965747/0
ExecutionTime = 4.42 s  ClockTime = 4 s

Mean and max Acoustic Courant Numbers = 0.0483731 0.111754
Courant Number max : 0.012522 velocity magnitude: 19.0961
Time = 0.000249

diagonal:  Solving for rho, Initial residual = 0, Final residual = 0, No Iterations 0
rho max/min : 0.83124 / 0.710718
DILUPBiCG:  Solving for h, Initial residual = 0.00224441, Final residual = 1.28268e-12, No Iterations 1
max/min T: 295.551/282.524
DILUPBiCG:  Solving for p, Initial residual = 0.00239133, Final residual = 9.64632e-11, No Iterations 2
max(U): (18.9909 0.00153247 2.13188e-32)
max/min p: 68970/58970
diagonal:  Solving for rho, Initial residual = 0, Final residual = 0, No Iterations 0
rho max/min : 0.83124 / 0.710718
time step continuity errors : sum local = 7.01261e-12, global = 2.43108e-12, cumulative = 9.94019e-10
max/min FaceAcCourant: 0.111754/0.028084
max/min Maf: 0.05638/0
max/min kappa: 0.965751/0
ExecutionTime = 4.44 s  ClockTime = 4 s

Mean and max Acoustic Courant Numbers = 0.0483778 0.111754
Courant Number max : 0.0125219 velocity magnitude: 19.096
Time = 0.00025

diagonal:  Solving for rho, Initial residual = 0, Final residual = 0, No Iterations 0
rho max/min : 0.83124 / 0.710718
DILUPBiCG:  Solving for h, Initial residual = 0.00223498, Final residual = 1.24535e-12, No Iterations 1
max/min T: 295.551/282.525
DILUPBiCG:  Solving for p, Initial residual = 0.00240258, Final residual = 8.90198e-11, No Iterations 2
max(U): (18.991 0.00152664 2.13188e-32)
max/min p: 68970/58970
diagonal:  Solving for rho, Initial residual = 0, Final residual = 0, No Iterations 0
rho max/min : 0.83124 / 0.710718
time step continuity errors : sum local = 6.4412e-12, global = 2.4993e-12, cumulative = 9.96518e-10
max/min FaceAcCourant: 0.111754/0.0280841
max/min Maf: 0.0563801/0
max/min kappa: 0.965755/0
ExecutionTime = 4.49 s  ClockTime = 4 s

End

