/*---------------------------------------------------------------------------*\
| =========                 |                                                 |
| \\      /  F ield         | OpenFOAM: The Open Source CFD Toolbox           |
|  \\    /   O peration     | Version:  3.0.1                                 |
|   \\  /    A nd           | Web:      www.OpenFOAM.org                      |
|    \\/     M anipulation  |                                                 |
\*---------------------------------------------------------------------------*/
Build  : 3.0.1-d8a290b55d28
Exec   : pisoCentralFoam
Date   : Oct 13 2016
Time   : 14:05:19
Host   : "bl022.unicluster.ru"
PID    : 6957
Case   : /lustre/unicluster/home/matvey.kraposhin/run/Unicfdlab/github-hybridCentralSolvers/Tutorials-3.0.1/case-subsonic/Std-1
nProcs : 1
sigFpe : Enabling floating point exception trapping (FOAM_SIGFPE).
fileModificationChecking : Monitoring run-time modified files using timeStampMaster
allowSystemOperations : Allowing user-supplied system call operations

// * * * * * * * * * * * * * * * * * * * * * * * * * * * * * * * * * * * * * //
Create time

Create mesh for time = 0


PIMPLE: Operating solver in PISO mode

Reading thermophysical properties

Selecting thermodynamics package 
{
    type            hePsiThermo;
    mixture         pureMixture;
    transport       const;
    thermo          hConst;
    equationOfState perfectGas;
    specie          specie;
    energy          sensibleEnthalpy;
}

Reading field U

Creating field kinetic energy K

Selecting finite volume kappaFunction type standardMachToAcCourantRatio
Creating turbulence model

Selecting turbulence model type laminar
No finite volume options present

No MRF models present

Marking cells with bad quality to limit pressure gradient
max/min FaceAcCourant: 3.33333e-20/1.66667e-20
max/min Maf: 0/0
max/min kappa: 0/0
Courant Number max : 0 velocity magnitude: 0

Starting time loop

Mean and max Acoustic Courant Numbers = 1.66667e-20 3.33333e-20
Courant Number max : 0 velocity magnitude: 0
Time = 1e-07

diagonal:  Solving for rho, Initial residual = 0, Final residual = 0, No Iterations 0
rho max/min : 0.83124 / 0.710718
DILUPBiCG:  Solving for h, Initial residual = 1, Final residual = 6.21587e-18, No Iterations 1
max/min T: 289/289
DILUPBiCG:  Solving for p, Initial residual = 0.000113525, Final residual = 8.77882e-15, No Iterations 2
max(U): (0.230653 3.6748e-06 2.13188e-33)
max/min p: 68970/58970
diagonal:  Solving for rho, Initial residual = 0, Final residual = 0, No Iterations 0
rho max/min : 0.83124 / 0.710718
time step continuity errors : sum local = 1.47717e-15, global = 1.18945e-16, cumulative = 1.18945e-16
max/min FaceAcCourant: 0.0111754/0.00284041
max/min Maf: 0.0785209/0
max/min kappa: 1/0
ExecutionTime = 0.12 s  ClockTime = 0 s

Mean and max Acoustic Courant Numbers = 0.00471946 0.0111754
Courant Number max : 0.001755 velocity magnitude: 26.7638
Time = 2e-07

diagonal:  Solving for rho, Initial residual = 0, Final residual = 0, No Iterations 0
rho max/min : 0.83124 / 0.710718
DILUPBiCG:  Solving for h, Initial residual = 1, Final residual = 5.64647e-12, No Iterations 1
max/min T: 289.078/288.933
DILUPBiCG:  Solving for p, Initial residual = 0.000144266, Final residual = 1.04217e-15, No Iterations 2
max(U): (0.460722 8.34299e-06 2.13188e-33)
max/min p: 68970/58970
diagonal:  Solving for rho, Initial residual = 0, Final residual = 0, No Iterations 0
rho max/min : 0.83124 / 0.710718
time step continuity errors : sum local = 3.06868e-16, global = 1.91522e-17, cumulative = 1.38098e-16
max/min FaceAcCourant: 0.0111754/0.00284008
max/min Maf: 0.0774503/0
max/min kappa: 1/0
ExecutionTime = 0.13 s  ClockTime = 0 s

Mean and max Acoustic Courant Numbers = 0.00471954 0.0111754
Courant Number max : 0.00173109 velocity magnitude: 26.3991
Time = 3e-07

diagonal:  Solving for rho, Initial residual = 0, Final residual = 0, No Iterations 0
rho max/min : 0.83124 / 0.710718
DILUPBiCG:  Solving for h, Initial residual = 0.368347, Final residual = 2.63455e-11, No Iterations 1
max/min T: 289.175/288.849
DILUPBiCG:  Solving for p, Initial residual = 0.000150592, Final residual = 1.45793e-14, No Iterations 2
max(U): (0.690418 1.32716e-05 2.13188e-33)
max/min p: 68970/58970
diagonal:  Solving for rho, Initial residual = 0, Final residual = 0, No Iterations 0
rho max/min : 0.83124 / 0.710718
time step continuity errors : sum local = 2.40613e-15, global = -1.29602e-18, cumulative = 1.36802e-16
max/min FaceAcCourant: 0.0111754/0.00283966
max/min Maf: 0.0761799/0
max/min kappa: 1/0
ExecutionTime = 0.15 s  ClockTime = 0 s

Mean and max Acoustic Courant Numbers = 0.00471962 0.0111754
Courant Number max : 0.00170271 velocity magnitude: 25.9664
Time = 4e-07

diagonal:  Solving for rho, Initial residual = 0, Final residual = 0, No Iterations 0
rho max/min : 0.83124 / 0.710718
DILUPBiCG:  Solving for h, Initial residual = 0.211275, Final residual = 2.68746e-11, No Iterations 1
max/min T: 289.275/288.762
DILUPBiCG:  Solving for p, Initial residual = 0.000150094, Final residual = 1.40021e-14, No Iterations 2
max(U): (0.919613 1.8263e-05 2.13188e-33)
max/min p: 68970/58970
diagonal:  Solving for rho, Initial residual = 0, Final residual = 0, No Iterations 0
rho max/min : 0.83124 / 0.710718
time step continuity errors : sum local = 2.31382e-15, global = -1.35362e-17, cumulative = 1.23265e-16
max/min FaceAcCourant: 0.0111754/0.00283924
max/min Maf: 0.0748976/0
max/min kappa: 1/0
ExecutionTime = 0.17 s  ClockTime = 0 s

Mean and max Acoustic Courant Numbers = 0.0047197 0.0111754
Courant Number max : 0.00167407 velocity magnitude: 25.5296
Time = 5e-07

diagonal:  Solving for rho, Initial residual = 0, Final residual = 0, No Iterations 0
rho max/min : 0.83124 / 0.710718
DILUPBiCG:  Solving for h, Initial residual = 0.143734, Final residual = 2.59093e-11, No Iterations 1
max/min T: 289.373/288.677
DILUPBiCG:  Solving for p, Initial residual = 0.000147709, Final residual = 1.32272e-14, No Iterations 2
max(U): (1.14817 2.32456e-05 2.13188e-33)
max/min p: 68970/58970
diagonal:  Solving for rho, Initial residual = 0, Final residual = 0, No Iterations 0
rho max/min : 0.83124 / 0.710718
time step continuity errors : sum local = 2.19113e-15, global = 3.16804e-18, cumulative = 1.26434e-16
max/min FaceAcCourant: 0.0111754/0.00283882
max/min Maf: 0.0736546/0
max/min kappa: 1/0
ExecutionTime = 0.19 s  ClockTime = 0 s

Mean and max Acoustic Courant Numbers = 0.00471978 0.0111754
Courant Number max : 0.0016463 velocity magnitude: 25.1061
Time = 6e-07

diagonal:  Solving for rho, Initial residual = 0, Final residual = 0, No Iterations 0
rho max/min : 0.83124 / 0.710718
DILUPBiCG:  Solving for h, Initial residual = 0.107297, Final residual = 2.46725e-11, No Iterations 1
max/min T: 289.467/288.594
DILUPBiCG:  Solving for p, Initial residual = 0.000144873, Final residual = 1.11967e-14, No Iterations 2
max(U): (1.37593 2.81969e-05 2.13188e-33)
max/min p: 68970/58970
diagonal:  Solving for rho, Initial residual = 0, Final residual = 0, No Iterations 0
rho max/min : 0.83124 / 0.710718
time step continuity errors : sum local = 1.87332e-15, global = -1.59842e-17, cumulative = 1.10449e-16
max/min FaceAcCourant: 0.0111754/0.00283841
max/min Maf: 0.0724641/0
max/min kappa: 1/0
ExecutionTime = 0.21 s  ClockTime = 0 s

Mean and max Acoustic Courant Numbers = 0.00471985 0.0111754
Courant Number max : 0.00161971 velocity magnitude: 24.7005
Time = 7e-07

diagonal:  Solving for rho, Initial residual = 0, Final residual = 0, No Iterations 0
rho max/min : 0.83124 / 0.710718
DILUPBiCG:  Solving for h, Initial residual = 0.084855, Final residual = 2.34243e-11, No Iterations 1
max/min T: 289.558/288.513
DILUPBiCG:  Solving for p, Initial residual = 0.000142002, Final residual = 9.4376e-15, No Iterations 2
max(U): (1.60273 3.31051e-05 2.13188e-33)
max/min p: 68970/58970
diagonal:  Solving for rho, Initial residual = 0, Final residual = 0, No Iterations 0
rho max/min : 0.83124 / 0.710718
time step continuity errors : sum local = 1.5882e-15, global = -2.57763e-17, cumulative = 8.4673e-17
max/min FaceAcCourant: 0.0111754/0.00283801
max/min Maf: 0.0713283/0
max/min kappa: 1/0
ExecutionTime = 0.23 s  ClockTime = 0 s

Mean and max Acoustic Courant Numbers = 0.00471993 0.0111754
Courant Number max : 0.00159433 velocity magnitude: 24.3135
Time = 8e-07

diagonal:  Solving for rho, Initial residual = 0, Final residual = 0, No Iterations 0
rho max/min : 0.83124 / 0.710718
DILUPBiCG:  Solving for h, Initial residual = 0.0697557, Final residual = 2.21982e-11, No Iterations 1
max/min T: 289.645/288.435
DILUPBiCG:  Solving for p, Initial residual = 0.000139213, Final residual = 1.0345e-14, No Iterations 2
max(U): (1.82841 3.79614e-05 2.13188e-33)
max/min p: 68970/58970
diagonal:  Solving for rho, Initial residual = 0, Final residual = 0, No Iterations 0
rho max/min : 0.83124 / 0.710718
time step continuity errors : sum local = 1.72658e-15, global = -3.36964e-17, cumulative = 5.09766e-17
max/min FaceAcCourant: 0.0111754/0.00283763
max/min Maf: 0.0702463/0
max/min kappa: 1/0
ExecutionTime = 0.25 s  ClockTime = 0 s

Mean and max Acoustic Courant Numbers = 0.00472001 0.0111754
Courant Number max : 0.00157016 velocity magnitude: 23.9449
Time = 9e-07

diagonal:  Solving for rho, Initial residual = 0, Final residual = 0, No Iterations 0
rho max/min : 0.83124 / 0.710718
DILUPBiCG:  Solving for h, Initial residual = 0.0589408, Final residual = 2.10529e-11, No Iterations 1
max/min T: 289.728/288.36
DILUPBiCG:  Solving for p, Initial residual = 0.000136538, Final residual = 9.28642e-15, No Iterations 2
max(U): (2.0528 4.27572e-05 2.13188e-33)
max/min p: 68970/58970
diagonal:  Solving for rho, Initial residual = 0, Final residual = 0, No Iterations 0
rho max/min : 0.83124 / 0.710718
time step continuity errors : sum local = 1.5653e-15, global = -2.24643e-17, cumulative = 2.85123e-17
max/min FaceAcCourant: 0.0111754/0.00283726
max/min Maf: 0.0692164/0
max/min kappa: 1/0
ExecutionTime = 0.27 s  ClockTime = 0 s

Mean and max Acoustic Courant Numbers = 0.00472008 0.0111754
Courant Number max : 0.00154715 velocity magnitude: 23.594
Time = 1e-06

diagonal:  Solving for rho, Initial residual = 0, Final residual = 0, No Iterations 0
rho max/min : 0.83124 / 0.710718
DILUPBiCG:  Solving for h, Initial residual = 0.05083, Final residual = 1.9914e-11, No Iterations 1
max/min T: 289.808/288.288
DILUPBiCG:  Solving for p, Initial residual = 0.000133982, Final residual = 8.36067e-15, No Iterations 2
max(U): (2.27572 4.7484e-05 2.13188e-33)
max/min p: 68970/58970
diagonal:  Solving for rho, Initial residual = 0, Final residual = 0, No Iterations 0
rho max/min : 0.83124 / 0.710718
time step continuity errors : sum local = 1.41986e-15, global = -3.97445e-17, cumulative = -1.12321e-17
max/min FaceAcCourant: 0.0111754/0.00283691
max/min Maf: 0.0682368/0
max/min kappa: 1/0
ExecutionTime = 0.28 s  ClockTime = 0 s

Mean and max Acoustic Courant Numbers = 0.00472016 0.0111754
Courant Number max : 0.00152525 velocity magnitude: 23.2601
Time = 1.1e-06

diagonal:  Solving for rho, Initial residual = 0, Final residual = 0, No Iterations 0
rho max/min : 0.83124 / 0.710718
DILUPBiCG:  Solving for h, Initial residual = 0.0445314, Final residual = 1.88183e-11, No Iterations 1
max/min T: 289.883/288.218
DILUPBiCG:  Solving for p, Initial residual = 0.000131544, Final residual = 7.46189e-15, No Iterations 2
max(U): (2.49698 5.21331e-05 2.13188e-33)
max/min p: 68970/58970
diagonal:  Solving for rho, Initial residual = 0, Final residual = 0, No Iterations 0
rho max/min : 0.83124 / 0.710718
time step continuity errors : sum local = 1.28838e-15, global = -3.12484e-17, cumulative = -4.24805e-17
max/min FaceAcCourant: 0.0111754/0.00283656
max/min Maf: 0.0673053/0
max/min kappa: 1/0
ExecutionTime = 0.3 s  ClockTime = 0 s

Mean and max Acoustic Courant Numbers = 0.00472023 0.0111754
Courant Number max : 0.00150444 velocity magnitude: 22.9427
Time = 1.2e-06

diagonal:  Solving for rho, Initial residual = 0, Final residual = 0, No Iterations 0
rho max/min : 0.83124 / 0.710718
DILUPBiCG:  Solving for h, Initial residual = 0.0395053, Final residual = 1.77677e-11, No Iterations 1
max/min T: 289.956/288.151
DILUPBiCG:  Solving for p, Initial residual = 0.000129222, Final residual = 6.74787e-15, No Iterations 2
max(U): (2.71641 5.6696e-05 2.13188e-33)
max/min p: 68970/58970
diagonal:  Solving for rho, Initial residual = 0, Final residual = 0, No Iterations 0
rho max/min : 0.83124 / 0.710718
time step continuity errors : sum local = 1.1644e-15, global = -4.23365e-17, cumulative = -8.4817e-17
max/min FaceAcCourant: 0.0111754/0.00283623
max/min Maf: 0.0664201/0
max/min kappa: 1/0
ExecutionTime = 0.32 s  ClockTime = 0 s

Mean and max Acoustic Courant Numbers = 0.00472031 0.0111754
Courant Number max : 0.00148466 velocity magnitude: 22.641
Time = 1.3e-06

diagonal:  Solving for rho, Initial residual = 0, Final residual = 0, No Iterations 0
rho max/min : 0.83124 / 0.710718
DILUPBiCG:  Solving for h, Initial residual = 0.0354069, Final residual = 1.67437e-11, No Iterations 1
max/min T: 290.024/288.086
DILUPBiCG:  Solving for p, Initial residual = 0.000127011, Final residual = 9.99569e-10, No Iterations 1
max(U): (2.93383 6.11657e-05 2.13188e-33)
max/min p: 68970/58970
diagonal:  Solving for rho, Initial residual = 0, Final residual = 0, No Iterations 0
rho max/min : 0.83124 / 0.710718
time step continuity errors : sum local = 1.55746e-10, global = -1.74808e-12, cumulative = -1.74816e-12
max/min FaceAcCourant: 0.0111754/0.00283591
max/min Maf: 0.065579/0
max/min kappa: 1/0
ExecutionTime = 0.33 s  ClockTime = 0 s

Mean and max Acoustic Courant Numbers = 0.00472038 0.0111754
Courant Number max : 0.00146586 velocity magnitude: 22.3543
Time = 1.4e-06

diagonal:  Solving for rho, Initial residual = 0, Final residual = 0, No Iterations 0
rho max/min : 0.83124 / 0.710718
DILUPBiCG:  Solving for h, Initial residual = 0.0320056, Final residual = 1.55385e-11, No Iterations 1
max/min T: 290.089/288.024
DILUPBiCG:  Solving for p, Initial residual = 0.000124907, Final residual = 9.08006e-10, No Iterations 1
max(U): (3.14905 6.55339e-05 2.13188e-33)
max/min p: 68970/58970
diagonal:  Solving for rho, Initial residual = 0, Final residual = 0, No Iterations 0
rho max/min : 0.83124 / 0.710718
time step continuity errors : sum local = 1.41444e-10, global = -2.8759e-12, cumulative = -4.62406e-12
max/min FaceAcCourant: 0.0111754/0.00283561
max/min Maf: 0.0647803/0
max/min kappa: 1/0
ExecutionTime = 0.35 s  ClockTime = 0 s

Mean and max Acoustic Courant Numbers = 0.00472046 0.0111754
Courant Number max : 0.00144801 velocity magnitude: 22.0821
Time = 1.5e-06

diagonal:  Solving for rho, Initial residual = 0, Final residual = 0, No Iterations 0
rho max/min : 0.83124 / 0.710718
DILUPBiCG:  Solving for h, Initial residual = 0.0291413, Final residual = 1.42982e-11, No Iterations 1
max/min T: 290.151/287.965
DILUPBiCG:  Solving for p, Initial residual = 0.000122905, Final residual = 8.38987e-10, No Iterations 1
max(U): (3.3619 6.97924e-05 2.13188e-33)
max/min p: 68970/58970
diagonal:  Solving for rho, Initial residual = 0, Final residual = 0, No Iterations 0
rho max/min : 0.83124 / 0.710718
time step continuity errors : sum local = 1.3066e-10, global = -5.83303e-12, cumulative = -1.04571e-11
max/min FaceAcCourant: 0.0111754/0.00283531
max/min Maf: 0.064022/0
max/min kappa: 1/0
ExecutionTime = 0.36 s  ClockTime = 0 s

Mean and max Acoustic Courant Numbers = 0.00472053 0.0111754
Courant Number max : 0.00143106 velocity magnitude: 21.8236
Time = 1.6e-06

diagonal:  Solving for rho, Initial residual = 0, Final residual = 0, No Iterations 0
rho max/min : 0.83124 / 0.710718
DILUPBiCG:  Solving for h, Initial residual = 0.0266997, Final residual = 1.3104e-11, No Iterations 1
max/min T: 290.21/287.907
DILUPBiCG:  Solving for p, Initial residual = 0.000121003, Final residual = 6.76544e-10, No Iterations 1
max(U): (3.5722 7.3933e-05 2.13188e-33)
max/min p: 68970/58970
diagonal:  Solving for rho, Initial residual = 0, Final residual = 0, No Iterations 0
rho max/min : 0.83124 / 0.710718
time step continuity errors : sum local = 1.05336e-10, global = -6.14328e-12, cumulative = -1.66004e-11
max/min FaceAcCourant: 0.0111754/0.00283503
max/min Maf: 0.0633023/0
max/min kappa: 1/0
ExecutionTime = 0.37 s  ClockTime = 0 s

Mean and max Acoustic Courant Numbers = 0.0047206 0.0111754
Courant Number max : 0.00141497 velocity magnitude: 21.5782
Time = 1.7e-06

diagonal:  Solving for rho, Initial residual = 0, Final residual = 0, No Iterations 0
rho max/min : 0.83124 / 0.710718
DILUPBiCG:  Solving for h, Initial residual = 0.0245967, Final residual = 1.19996e-11, No Iterations 1
max/min T: 290.265/287.853
DILUPBiCG:  Solving for p, Initial residual = 0.000119196, Final residual = 6.487e-10, No Iterations 1
max(U): (3.77978 7.79479e-05 2.13188e-33)
max/min p: 68970/58970
diagonal:  Solving for rho, Initial residual = 0, Final residual = 0, No Iterations 0
rho max/min : 0.83124 / 0.710718
time step continuity errors : sum local = 1.00976e-10, global = -6.27373e-12, cumulative = -2.28741e-11
max/min FaceAcCourant: 0.0111754/0.00283476
max/min Maf: 0.0626192/0
max/min kappa: 1/0
ExecutionTime = 0.39 s  ClockTime = 0 s

Mean and max Acoustic Courant Numbers = 0.00472067 0.0111754
Courant Number max : 0.0013997 velocity magnitude: 21.3453
Time = 1.8e-06

diagonal:  Solving for rho, Initial residual = 0, Final residual = 0, No Iterations 0
rho max/min : 0.83124 / 0.710718
DILUPBiCG:  Solving for h, Initial residual = 0.0227692, Final residual = 1.10046e-11, No Iterations 1
max/min T: 290.318/287.8
DILUPBiCG:  Solving for p, Initial residual = 0.000117481, Final residual = 6.32025e-10, No Iterations 1
max(U): (3.98448 8.18296e-05 2.13188e-33)
max/min p: 68970/58970
diagonal:  Solving for rho, Initial residual = 0, Final residual = 0, No Iterations 0
rho max/min : 0.83124 / 0.710718
time step continuity errors : sum local = 9.83567e-11, global = -6.47424e-12, cumulative = -2.93484e-11
max/min FaceAcCourant: 0.0111754/0.0028345
max/min Maf: 0.0619711/0
max/min kappa: 1/0
ExecutionTime = 0.41 s  ClockTime = 0 s

Mean and max Acoustic Courant Numbers = 0.00472074 0.0111754
Courant Number max : 0.0013852 velocity magnitude: 21.1244
Time = 1.9e-06

diagonal:  Solving for rho, Initial residual = 0, Final residual = 0, No Iterations 0
rho max/min : 0.83124 / 0.710718
DILUPBiCG:  Solving for h, Initial residual = 0.0211688, Final residual = 1.01535e-11, No Iterations 1
max/min T: 290.367/287.75
DILUPBiCG:  Solving for p, Initial residual = 0.000115852, Final residual = 6.18055e-10, No Iterations 1
max(U): (4.18613 8.55712e-05 2.13188e-33)
max/min p: 68970/58970
diagonal:  Solving for rho, Initial residual = 0, Final residual = 0, No Iterations 0
rho max/min : 0.83124 / 0.710718
time step continuity errors : sum local = 9.61601e-11, global = -6.64883e-12, cumulative = -3.59972e-11
max/min FaceAcCourant: 0.0111754/0.00283426
max/min Maf: 0.0613562/0
max/min kappa: 1/0
ExecutionTime = 0.43 s  ClockTime = 0 s

Mean and max Acoustic Courant Numbers = 0.00472081 0.0111754
Courant Number max : 0.00137145 velocity magnitude: 20.9147
Time = 2e-06

diagonal:  Solving for rho, Initial residual = 0, Final residual = 0, No Iterations 0
rho max/min : 0.83124 / 0.710718
DILUPBiCG:  Solving for h, Initial residual = 0.0197577, Final residual = 9.40279e-12, No Iterations 1
max/min T: 290.413/287.702
DILUPBiCG:  Solving for p, Initial residual = 0.000114307, Final residual = 6.03392e-10, No Iterations 1
max(U): (4.38459 8.91663e-05 2.13188e-33)
max/min p: 68970/58970
diagonal:  Solving for rho, Initial residual = 0, Final residual = 0, No Iterations 0
rho max/min : 0.83124 / 0.710718
time step continuity errors : sum local = 9.3857e-11, global = -6.79789e-12, cumulative = -4.27951e-11
max/min FaceAcCourant: 0.0111754/0.00283402
max/min Maf: 0.0607727/0
max/min kappa: 1/0
ExecutionTime = 0.44 s  ClockTime = 0 s

Mean and max Acoustic Courant Numbers = 0.00472088 0.0111754
Courant Number max : 0.00135841 velocity magnitude: 20.7157
Time = 2.1e-06

diagonal:  Solving for rho, Initial residual = 0, Final residual = 0, No Iterations 0
rho max/min : 0.83124 / 0.710718
DILUPBiCG:  Solving for h, Initial residual = 0.0185063, Final residual = 8.86348e-12, No Iterations 1
max/min T: 290.457/287.657
DILUPBiCG:  Solving for p, Initial residual = 0.000112842, Final residual = 5.88714e-10, No Iterations 1
max(U): (4.57971 9.26092e-05 2.13188e-33)
max/min p: 68970/58970
diagonal:  Solving for rho, Initial residual = 0, Final residual = 0, No Iterations 0
rho max/min : 0.83124 / 0.710718
time step continuity errors : sum local = 9.15528e-11, global = -6.922e-12, cumulative = -4.97171e-11
max/min FaceAcCourant: 0.0111754/0.0028338
max/min Maf: 0.060219/0
max/min kappa: 1/0
ExecutionTime = 0.46 s  ClockTime = 0 s

Mean and max Acoustic Courant Numbers = 0.00472094 0.0111754
Courant Number max : 0.00134603 velocity magnitude: 20.5269
Time = 2.2e-06

diagonal:  Solving for rho, Initial residual = 0, Final residual = 0, No Iterations 0
rho max/min : 0.83124 / 0.710718
DILUPBiCG:  Solving for h, Initial residual = 0.0173905, Final residual = 8.39654e-12, No Iterations 1
max/min T: 290.497/287.613
DILUPBiCG:  Solving for p, Initial residual = 0.000111453, Final residual = 5.74387e-10, No Iterations 1
max(U): (4.77165 9.59163e-05 2.13188e-33)
max/min p: 68970/58970
diagonal:  Solving for rho, Initial residual = 0, Final residual = 0, No Iterations 0
rho max/min : 0.83124 / 0.710718
time step continuity errors : sum local = 8.93046e-11, global = -7.00708e-12, cumulative = -5.67242e-11
max/min FaceAcCourant: 0.0111754/0.00283358
max/min Maf: 0.0596941/0
max/min kappa: 1/0
ExecutionTime = 0.48 s  ClockTime = 0 s

Mean and max Acoustic Courant Numbers = 0.00472101 0.0111754
Courant Number max : 0.00133429 velocity magnitude: 20.3479
Time = 2.3e-06

diagonal:  Solving for rho, Initial residual = 0, Final residual = 0, No Iterations 0
rho max/min : 0.83124 / 0.710718
DILUPBiCG:  Solving for h, Initial residual = 0.0163909, Final residual = 7.73076e-12, No Iterations 1
max/min T: 290.536/287.572
DILUPBiCG:  Solving for p, Initial residual = 0.000110142, Final residual = 5.60425e-10, No Iterations 1
max(U): (4.96172 9.91412e-05 2.13188e-33)
max/min p: 68970/58970
diagonal:  Solving for rho, Initial residual = 0, Final residual = 0, No Iterations 0
rho max/min : 0.83124 / 0.710718
time step continuity errors : sum local = 8.71142e-11, global = -6.99452e-12, cumulative = -6.37187e-11
max/min FaceAcCourant: 0.0111754/0.00283338
max/min Maf: 0.0591997/0
max/min kappa: 1/0
ExecutionTime = 0.49 s  ClockTime = 0 s

Mean and max Acoustic Courant Numbers = 0.00472107 0.0111754
Courant Number max : 0.00132323 velocity magnitude: 20.1793
Time = 2.4e-06

diagonal:  Solving for rho, Initial residual = 0, Final residual = 0, No Iterations 0
rho max/min : 0.83124 / 0.710718
DILUPBiCG:  Solving for h, Initial residual = 0.0154909, Final residual = 7.13883e-12, No Iterations 1
max/min T: 290.572/287.533
DILUPBiCG:  Solving for p, Initial residual = 0.000108903, Final residual = 5.46344e-10, No Iterations 1
max(U): (5.14991 0.000102285 2.13188e-33)
max/min p: 68970/58970
diagonal:  Solving for rho, Initial residual = 0, Final residual = 0, No Iterations 0
rho max/min : 0.83124 / 0.710718
time step continuity errors : sum local = 8.49067e-11, global = -6.85903e-12, cumulative = -7.05777e-11
max/min FaceAcCourant: 0.0111754/0.00283319
max/min Maf: 0.0587335/0
max/min kappa: 1/0
ExecutionTime = 0.51 s  ClockTime = 0 s

Mean and max Acoustic Courant Numbers = 0.00472114 0.0111754
Courant Number max : 0.0013128 velocity magnitude: 20.0203
Time = 2.5e-06

diagonal:  Solving for rho, Initial residual = 0, Final residual = 0, No Iterations 0
rho max/min : 0.83124 / 0.710718
DILUPBiCG:  Solving for h, Initial residual = 0.0146778, Final residual = 6.60288e-12, No Iterations 1
max/min T: 290.607/287.497
DILUPBiCG:  Solving for p, Initial residual = 0.000107733, Final residual = 5.33195e-10, No Iterations 1
max(U): (5.33624 0.00010535 2.13188e-33)
max/min p: 68970/58970
diagonal:  Solving for rho, Initial residual = 0, Final residual = 0, No Iterations 0
rho max/min : 0.83124 / 0.710718
time step continuity errors : sum local = 8.28452e-11, global = -6.7812e-12, cumulative = -7.73589e-11
max/min FaceAcCourant: 0.0111754/0.00283301
max/min Maf: 0.058294/0
max/min kappa: 1/0
ExecutionTime = 0.52 s  ClockTime = 0 s

Mean and max Acoustic Courant Numbers = 0.0047212 0.0111754
Courant Number max : 0.00130297 velocity magnitude: 19.8703
Time = 2.6e-06

diagonal:  Solving for rho, Initial residual = 0, Final residual = 0, No Iterations 0
rho max/min : 0.83124 / 0.710718
DILUPBiCG:  Solving for h, Initial residual = 0.0139406, Final residual = 6.12504e-12, No Iterations 1
max/min T: 290.64/287.462
DILUPBiCG:  Solving for p, Initial residual = 0.000106629, Final residual = 5.20431e-10, No Iterations 1
max(U): (5.5207 0.000108336 2.13188e-33)
max/min p: 68970/58970
diagonal:  Solving for rho, Initial residual = 0, Final residual = 0, No Iterations 0
rho max/min : 0.83124 / 0.710718
time step continuity errors : sum local = 8.08444e-11, global = -6.69118e-12, cumulative = -8.40501e-11
max/min FaceAcCourant: 0.0111754/0.00283284
max/min Maf: 0.0578799/0
max/min kappa: 1/0
ExecutionTime = 0.54 s  ClockTime = 0 s

Mean and max Acoustic Courant Numbers = 0.00472126 0.0111754
Courant Number max : 0.00129371 velocity magnitude: 19.7291
Time = 2.7e-06

diagonal:  Solving for rho, Initial residual = 0, Final residual = 0, No Iterations 0
rho max/min : 0.83124 / 0.710718
DILUPBiCG:  Solving for h, Initial residual = 0.0132702, Final residual = 5.68642e-12, No Iterations 1
max/min T: 290.671/287.429
DILUPBiCG:  Solving for p, Initial residual = 0.000105588, Final residual = 5.07956e-10, No Iterations 1
max(U): (5.7033 0.000111244 2.13188e-33)
max/min p: 68970/58970
diagonal:  Solving for rho, Initial residual = 0, Final residual = 0, No Iterations 0
rho max/min : 0.83124 / 0.710718
time step continuity errors : sum local = 7.88898e-11, global = -6.33937e-12, cumulative = -9.03895e-11
max/min FaceAcCourant: 0.0111754/0.00283268
max/min Maf: 0.0574899/0
max/min kappa: 1/0
ExecutionTime = 0.55 s  ClockTime = 0 s

Mean and max Acoustic Courant Numbers = 0.00472132 0.0111754
Courant Number max : 0.00128499 velocity magnitude: 19.5961
Time = 2.8e-06

diagonal:  Solving for rho, Initial residual = 0, Final residual = 0, No Iterations 0
rho max/min : 0.83124 / 0.710718
DILUPBiCG:  Solving for h, Initial residual = 0.0126588, Final residual = 5.25054e-12, No Iterations 1
max/min T: 290.7/287.398
DILUPBiCG:  Solving for p, Initial residual = 0.000104607, Final residual = 4.95827e-10, No Iterations 1
max(U): (5.88406 0.000114074 2.13188e-33)
max/min p: 68970/58970
diagonal:  Solving for rho, Initial residual = 0, Final residual = 0, No Iterations 0
rho max/min : 0.83124 / 0.710718
time step continuity errors : sum local = 7.69897e-11, global = -6.50354e-12, cumulative = -9.6893e-11
max/min FaceAcCourant: 0.0111754/0.00283252
max/min Maf: 0.0571232/0
max/min kappa: 1/0
ExecutionTime = 0.57 s  ClockTime = 0 s

Mean and max Acoustic Courant Numbers = 0.00472138 0.0111754
Courant Number max : 0.00127679 velocity magnitude: 19.471
Time = 2.9e-06

diagonal:  Solving for rho, Initial residual = 0, Final residual = 0, No Iterations 0
rho max/min : 0.83124 / 0.710718
DILUPBiCG:  Solving for h, Initial residual = 0.0120997, Final residual = 4.74772e-12, No Iterations 1
max/min T: 290.728/287.368
DILUPBiCG:  Solving for p, Initial residual = 0.000103685, Final residual = 4.84811e-10, No Iterations 1
max(U): (6.06297 0.000116829 2.13188e-33)
max/min p: 68970/58970
diagonal:  Solving for rho, Initial residual = 0, Final residual = 0, No Iterations 0
rho max/min : 0.83124 / 0.710718
time step continuity errors : sum local = 7.52633e-11, global = -6.04016e-12, cumulative = -1.02933e-10
max/min FaceAcCourant: 0.0111754/0.00283238
max/min Maf: 0.0567793/0
max/min kappa: 1/0
ExecutionTime = 0.59 s  ClockTime = 0 s

Mean and max Acoustic Courant Numbers = 0.00472145 0.0111754
Courant Number max : 0.0012691 velocity magnitude: 19.3537
Time = 3e-06

diagonal:  Solving for rho, Initial residual = 0, Final residual = 0, No Iterations 0
rho max/min : 0.83124 / 0.710718
DILUPBiCG:  Solving for h, Initial residual = 0.0115874, Final residual = 4.21456e-12, No Iterations 1
max/min T: 290.755/287.34
DILUPBiCG:  Solving for p, Initial residual = 0.000102819, Final residual = 4.73742e-10, No Iterations 1
max(U): (6.24003 0.000119508 2.13188e-33)
max/min p: 68970/58970
diagonal:  Solving for rho, Initial residual = 0, Final residual = 0, No Iterations 0
rho max/min : 0.83124 / 0.710718
time step continuity errors : sum local = 7.35296e-11, global = -6.49794e-12, cumulative = -1.09431e-10
max/min FaceAcCourant: 0.0111754/0.00283224
max/min Maf: 0.0564563/0
max/min kappa: 1/0
ExecutionTime = 0.61 s  ClockTime = 1 s

Mean and max Acoustic Courant Numbers = 0.00472151 0.0111754
Courant Number max : 0.00126187 velocity magnitude: 19.2435
Time = 3.1e-06

diagonal:  Solving for rho, Initial residual = 0, Final residual = 0, No Iterations 0
rho max/min : 0.83124 / 0.710718
DILUPBiCG:  Solving for h, Initial residual = 0.0111163, Final residual = 3.61419e-12, No Iterations 1
max/min T: 290.78/287.313
DILUPBiCG:  Solving for p, Initial residual = 0.000102002, Final residual = 4.64248e-10, No Iterations 1
max(U): (6.41526 0.000122112 2.13188e-33)
max/min p: 68970/58970
diagonal:  Solving for rho, Initial residual = 0, Final residual = 0, No Iterations 0
rho max/min : 0.83124 / 0.710718
time step continuity errors : sum local = 7.20412e-11, global = -6.50912e-12, cumulative = -1.1594e-10
max/min FaceAcCourant: 0.0111754/0.0028321
max/min Maf: 0.0561528/0
max/min kappa: 1/0
ExecutionTime = 0.63 s  ClockTime = 1 s

Mean and max Acoustic Courant Numbers = 0.00472156 0.0111754
Courant Number max : 0.00125508 velocity magnitude: 19.14
Time = 3.2e-06

diagonal:  Solving for rho, Initial residual = 0, Final residual = 0, No Iterations 0
rho max/min : 0.83124 / 0.710718
DILUPBiCG:  Solving for h, Initial residual = 0.0106816, Final residual = 2.87848e-12, No Iterations 1
max/min T: 290.804/287.287
DILUPBiCG:  Solving for p, Initial residual = 0.000101234, Final residual = 4.54793e-10, No Iterations 1
max(U): (6.58865 0.000124642 2.13188e-33)
max/min p: 68970/58970
diagonal:  Solving for rho, Initial residual = 0, Final residual = 0, No Iterations 0
rho max/min : 0.83124 / 0.710718
time step continuity errors : sum local = 7.05595e-11, global = -6.51785e-12, cumulative = -1.22458e-10
max/min FaceAcCourant: 0.0111754/0.00283197
max/min Maf: 0.0558679/0
max/min kappa: 1/0
ExecutionTime = 0.65 s  ClockTime = 1 s

Mean and max Acoustic Courant Numbers = 0.00472162 0.0111754
Courant Number max : 0.00124871 velocity magnitude: 19.0428
Time = 3.3e-06

diagonal:  Solving for rho, Initial residual = 0, Final residual = 0, No Iterations 0
rho max/min : 0.83124 / 0.710718
DILUPBiCG:  Solving for h, Initial residual = 0.0102799, Final residual = 1.85371e-12, No Iterations 1
max/min T: 290.826/287.262
DILUPBiCG:  Solving for p, Initial residual = 0.00010051, Final residual = 4.45291e-10, No Iterations 1
max(U): (6.76021 0.000127099 2.13188e-33)
max/min p: 68970/58970
diagonal:  Solving for rho, Initial residual = 0, Final residual = 0, No Iterations 0
rho max/min : 0.83124 / 0.710718
time step continuity errors : sum local = 6.90714e-11, global = -6.5239e-12, cumulative = -1.28982e-10
max/min FaceAcCourant: 0.0111754/0.00283185
max/min Maf: 0.0556009/0
max/min kappa: 1/0
ExecutionTime = 0.66 s  ClockTime = 1 s

Mean and max Acoustic Courant Numbers = 0.00472168 0.0111754
Courant Number max : 0.00124274 velocity magnitude: 18.9517
Time = 3.4e-06

diagonal:  Solving for rho, Initial residual = 0, Final residual = 0, No Iterations 0
rho max/min : 0.83124 / 0.710718
DILUPBiCG:  Solving for h, Initial residual = 0.00990772, Final residual = 5.46534e-12, No Iterations 1
max/min T: 290.847/287.237
DILUPBiCG:  Solving for p, Initial residual = 9.98301e-05, Final residual = 4.35665e-10, No Iterations 1
max(U): (6.92996 0.000129484 2.13188e-33)
max/min p: 68970/58970
diagonal:  Solving for rho, Initial residual = 0, Final residual = 0, No Iterations 0
rho max/min : 0.83124 / 0.710718
time step continuity errors : sum local = 6.75646e-11, global = -6.52683e-12, cumulative = -1.35509e-10
max/min FaceAcCourant: 0.0111754/0.00283173
max/min Maf: 0.0553508/0
max/min kappa: 1/0
ExecutionTime = 0.68 s  ClockTime = 1 s

Mean and max Acoustic Courant Numbers = 0.00472174 0.0111754
Courant Number max : 0.00123714 velocity magnitude: 18.8664
Time = 3.5e-06

diagonal:  Solving for rho, Initial residual = 0, Final residual = 0, No Iterations 0
rho max/min : 0.83124 / 0.710718
DILUPBiCG:  Solving for h, Initial residual = 0.00956246, Final residual = 5.30536e-12, No Iterations 1
max/min T: 290.867/287.214
DILUPBiCG:  Solving for p, Initial residual = 9.9191e-05, Final residual = 4.27924e-10, No Iterations 1
max(U): (7.09789 0.000131797 2.13188e-33)
max/min p: 68970/58970
diagonal:  Solving for rho, Initial residual = 0, Final residual = 0, No Iterations 0
rho max/min : 0.83124 / 0.710718
time step continuity errors : sum local = 6.63507e-11, global = -6.5268e-12, cumulative = -1.42036e-10
max/min FaceAcCourant: 0.0111754/0.00283162
max/min Maf: 0.055117/0
max/min kappa: 1/0
ExecutionTime = 0.69 s  ClockTime = 1 s

Mean and max Acoustic Courant Numbers = 0.0047218 0.0111754
Courant Number max : 0.00123191 velocity magnitude: 18.7866
Time = 3.6e-06

diagonal:  Solving for rho, Initial residual = 0, Final residual = 0, No Iterations 0
rho max/min : 0.83124 / 0.710718
DILUPBiCG:  Solving for h, Initial residual = 0.00924164, Final residual = 5.15476e-12, No Iterations 1
max/min T: 290.886/287.192
DILUPBiCG:  Solving for p, Initial residual = 9.85915e-05, Final residual = 4.20631e-10, No Iterations 1
max(U): (7.26403 0.00013404 2.13188e-33)
max/min p: 68970/58970
diagonal:  Solving for rho, Initial residual = 0, Final residual = 0, No Iterations 0
rho max/min : 0.83124 / 0.710718
time step continuity errors : sum local = 6.52069e-11, global = -6.52406e-12, cumulative = -1.4856e-10
max/min FaceAcCourant: 0.0111754/0.00283151
max/min Maf: 0.0548988/0
max/min kappa: 1/0
ExecutionTime = 0.71 s  ClockTime = 1 s

Mean and max Acoustic Courant Numbers = 0.00472185 0.0111754
Courant Number max : 0.00122702 velocity magnitude: 18.7121
Time = 3.7e-06

diagonal:  Solving for rho, Initial residual = 0, Final residual = 0, No Iterations 0
rho max/min : 0.83124 / 0.710718
DILUPBiCG:  Solving for h, Initial residual = 0.00894307, Final residual = 5.01289e-12, No Iterations 1
max/min T: 290.904/287.171
DILUPBiCG:  Solving for p, Initial residual = 9.80297e-05, Final residual = 4.13366e-10, No Iterations 1
max(U): (7.42836 0.000136214 2.13188e-33)
max/min p: 68970/58970
diagonal:  Solving for rho, Initial residual = 0, Final residual = 0, No Iterations 0
rho max/min : 0.83124 / 0.710718
time step continuity errors : sum local = 6.4068e-11, global = -6.51887e-12, cumulative = -1.55079e-10
max/min FaceAcCourant: 0.0111754/0.0028314
max/min Maf: 0.0546954/0
max/min kappa: 1/0
ExecutionTime = 0.72 s  ClockTime = 1 s

Mean and max Acoustic Courant Numbers = 0.00472191 0.0111754
Courant Number max : 0.00122247 velocity magnitude: 18.6427
Time = 3.8e-06

diagonal:  Solving for rho, Initial residual = 0, Final residual = 0, No Iterations 0
rho max/min : 0.83124 / 0.710718
DILUPBiCG:  Solving for h, Initial residual = 0.00866484, Final residual = 4.88885e-12, No Iterations 1
max/min T: 290.921/287.15
DILUPBiCG:  Solving for p, Initial residual = 9.7504e-05, Final residual = 4.11089e-10, No Iterations 1
max(U): (7.59091 0.000138318 2.13188e-33)
max/min p: 68970/58970
diagonal:  Solving for rho, Initial residual = 0, Final residual = 0, No Iterations 0
rho max/min : 0.83124 / 0.710718
time step continuity errors : sum local = 6.37027e-11, global = -6.51146e-12, cumulative = -1.6159e-10
max/min FaceAcCourant: 0.0111754/0.0028313
max/min Maf: 0.0545063/0
max/min kappa: 1/0
ExecutionTime = 0.74 s  ClockTime = 1 s

Mean and max Acoustic Courant Numbers = 0.00472196 0.0111754
Courant Number max : 0.00121824 velocity magnitude: 18.5782
Time = 3.9e-06

diagonal:  Solving for rho, Initial residual = 0, Final residual = 0, No Iterations 0
rho max/min : 0.83124 / 0.710718
DILUPBiCG:  Solving for h, Initial residual = 0.00840523, Final residual = 4.776e-12, No Iterations 1
max/min T: 290.937/287.131
DILUPBiCG:  Solving for p, Initial residual = 9.70129e-05, Final residual = 4.15814e-10, No Iterations 1
max(U): (7.75169 0.000140355 2.13188e-33)
max/min p: 68970/58970
diagonal:  Solving for rho, Initial residual = 0, Final residual = 0, No Iterations 0
rho max/min : 0.83124 / 0.710718
time step continuity errors : sum local = 6.44222e-11, global = -6.50284e-12, cumulative = -1.68093e-10
max/min FaceAcCourant: 0.0111754/0.00283121
max/min Maf: 0.0543308/0
max/min kappa: 1/0
ExecutionTime = 0.75 s  ClockTime = 1 s

Mean and max Acoustic Courant Numbers = 0.00472202 0.0111754
Courant Number max : 0.00121431 velocity magnitude: 18.5182
Time = 4e-06

diagonal:  Solving for rho, Initial residual = 0, Final residual = 0, No Iterations 0
rho max/min : 0.83124 / 0.710718
DILUPBiCG:  Solving for h, Initial residual = 0.0081627, Final residual = 4.66429e-12, No Iterations 1
max/min T: 290.952/287.112
DILUPBiCG:  Solving for p, Initial residual = 9.65548e-05, Final residual = 4.24507e-10, No Iterations 1
max(U): (7.9107 0.000142324 2.13188e-33)
max/min p: 68970/58970
diagonal:  Solving for rho, Initial residual = 0, Final residual = 0, No Iterations 0
rho max/min : 0.83124 / 0.710718
time step continuity errors : sum local = 6.57562e-11, global = -6.49149e-12, cumulative = -1.74584e-10
max/min FaceAcCourant: 0.0111754/0.00283111
max/min Maf: 0.0541683/0
max/min kappa: 1/0
ExecutionTime = 0.78 s  ClockTime = 1 s

Mean and max Acoustic Courant Numbers = 0.00472207 0.0111754
Courant Number max : 0.00121067 velocity magnitude: 18.4627
Time = 4.1e-06

diagonal:  Solving for rho, Initial residual = 0, Final residual = 0, No Iterations 0
rho max/min : 0.83124 / 0.710718
DILUPBiCG:  Solving for h, Initial residual = 0.00793586, Final residual = 4.5688e-12, No Iterations 1
max/min T: 290.966/287.094
DILUPBiCG:  Solving for p, Initial residual = 9.61284e-05, Final residual = 4.28249e-10, No Iterations 1
max(U): (8.06795 0.000144228 2.13188e-33)
max/min p: 68970/58970
diagonal:  Solving for rho, Initial residual = 0, Final residual = 0, No Iterations 0
rho max/min : 0.83124 / 0.710718
time step continuity errors : sum local = 6.6323e-11, global = -7.37025e-12, cumulative = -1.81955e-10
max/min FaceAcCourant: 0.0111754/0.00283102
max/min Maf: 0.0540183/0
max/min kappa: 1/0
ExecutionTime = 0.79 s  ClockTime = 1 s

Mean and max Acoustic Courant Numbers = 0.00472213 0.0111754
Courant Number max : 0.00120731 velocity magnitude: 18.4115
Time = 4.2e-06

diagonal:  Solving for rho, Initial residual = 0, Final residual = 0, No Iterations 0
rho max/min : 0.83124 / 0.710718
DILUPBiCG:  Solving for h, Initial residual = 0.00772347, Final residual = 4.45751e-12, No Iterations 1
max/min T: 290.98/287.076
DILUPBiCG:  Solving for p, Initial residual = 9.57323e-05, Final residual = 4.21978e-10, No Iterations 1
max(U): (8.22347 0.000146066 2.13188e-33)
max/min p: 68970/58970
diagonal:  Solving for rho, Initial residual = 0, Final residual = 0, No Iterations 0
rho max/min : 0.83124 / 0.710718
time step continuity errors : sum local = 6.53392e-11, global = -7.35223e-12, cumulative = -1.89307e-10
max/min FaceAcCourant: 0.0111754/0.00283094
max/min Maf: 0.0538803/0
max/min kappa: 1/0
ExecutionTime = 0.81 s  ClockTime = 1 s

Mean and max Acoustic Courant Numbers = 0.00472218 0.0111754
Courant Number max : 0.00120422 velocity magnitude: 18.3643
Time = 4.3e-06

diagonal:  Solving for rho, Initial residual = 0, Final residual = 0, No Iterations 0
rho max/min : 0.83124 / 0.710718
DILUPBiCG:  Solving for h, Initial residual = 0.0075244, Final residual = 4.3511e-12, No Iterations 1
max/min T: 290.992/287.059
DILUPBiCG:  Solving for p, Initial residual = 9.53652e-05, Final residual = 4.16103e-10, No Iterations 1
max(U): (8.37725 0.000147841 2.13188e-33)
max/min p: 68970/58970
diagonal:  Solving for rho, Initial residual = 0, Final residual = 0, No Iterations 0
rho max/min : 0.83124 / 0.710718
time step continuity errors : sum local = 6.44171e-11, global = -7.33278e-12, cumulative = -1.9664e-10
max/min FaceAcCourant: 0.0111754/0.00283085
max/min Maf: 0.0537536/0
max/min kappa: 1/0
ExecutionTime = 0.82 s  ClockTime = 1 s

Mean and max Acoustic Courant Numbers = 0.00472223 0.0111754
Courant Number max : 0.00120138 velocity magnitude: 18.3211
Time = 4.4e-06

diagonal:  Solving for rho, Initial residual = 0, Final residual = 0, No Iterations 0
rho max/min : 0.83124 / 0.710718
DILUPBiCG:  Solving for h, Initial residual = 0.0073376, Final residual = 4.2507e-12, No Iterations 1
max/min T: 291.004/287.043
DILUPBiCG:  Solving for p, Initial residual = 9.50258e-05, Final residual = 4.52439e-10, No Iterations 1
max(U): (8.52931 0.000149553 2.13188e-33)
max/min p: 68970/58970
diagonal:  Solving for rho, Initial residual = 0, Final residual = 0, No Iterations 0
rho max/min : 0.83124 / 0.710718
time step continuity errors : sum local = 7.00289e-11, global = -5.55517e-12, cumulative = -2.02195e-10
max/min FaceAcCourant: 0.0111754/0.00283077
max/min Maf: 0.0536379/0
max/min kappa: 1/0
ExecutionTime = 0.84 s  ClockTime = 1 s

Mean and max Acoustic Courant Numbers = 0.00472228 0.0111754
Courant Number max : 0.00119879 velocity magnitude: 18.2815
Time = 4.5e-06

diagonal:  Solving for rho, Initial residual = 0, Final residual = 0, No Iterations 0
rho max/min : 0.83124 / 0.710718
DILUPBiCG:  Solving for h, Initial residual = 0.00716187, Final residual = 4.15144e-12, No Iterations 1
max/min T: 291.015/287.028
DILUPBiCG:  Solving for p, Initial residual = 9.4713e-05, Final residual = 4.06017e-10, No Iterations 1
max(U): (8.67967 0.000151203 2.13188e-33)
max/min p: 68970/58970
diagonal:  Solving for rho, Initial residual = 0, Final residual = 0, No Iterations 0
rho max/min : 0.83124 / 0.710718
time step continuity errors : sum local = 6.28317e-11, global = -7.29044e-12, cumulative = -2.09485e-10
max/min FaceAcCourant: 0.0111754/0.0028307
max/min Maf: 0.0535326/0
max/min kappa: 1/0
ExecutionTime = 0.86 s  ClockTime = 1 s

Mean and max Acoustic Courant Numbers = 0.00472234 0.0111754
Courant Number max : 0.00119643 velocity magnitude: 18.2455
Time = 4.6e-06

diagonal:  Solving for rho, Initial residual = 0, Final residual = 0, No Iterations 0
rho max/min : 0.83124 / 0.710718
DILUPBiCG:  Solving for h, Initial residual = 0.00699643, Final residual = 4.04888e-12, No Iterations 1
max/min T: 291.025/287.013
DILUPBiCG:  Solving for p, Initial residual = 9.44256e-05, Final residual = 4.0148e-10, No Iterations 1
max(U): (8.82833 0.000152793 2.13188e-33)
max/min p: 68970/58970
diagonal:  Solving for rho, Initial residual = 0, Final residual = 0, No Iterations 0
rho max/min : 0.83124 / 0.710718
time step continuity errors : sum local = 6.21178e-11, global = -7.26782e-12, cumulative = -2.16753e-10
max/min FaceAcCourant: 0.0111754/0.00283062
max/min Maf: 0.0534372/0
max/min kappa: 1/0
ExecutionTime = 0.87 s  ClockTime = 1 s

Mean and max Acoustic Courant Numbers = 0.00472239 0.0111754
Courant Number max : 0.00119429 velocity magnitude: 18.2129
Time = 4.7e-06

diagonal:  Solving for rho, Initial residual = 0, Final residual = 0, No Iterations 0
rho max/min : 0.83124 / 0.710718
DILUPBiCG:  Solving for h, Initial residual = 0.00684074, Final residual = 3.95489e-12, No Iterations 1
max/min T: 291.035/286.998
DILUPBiCG:  Solving for p, Initial residual = 9.41625e-05, Final residual = 3.96875e-10, No Iterations 1
max(U): (8.97531 0.000154322 2.13188e-33)
max/min p: 68970/58970
diagonal:  Solving for rho, Initial residual = 0, Final residual = 0, No Iterations 0
rho max/min : 0.83124 / 0.710718
time step continuity errors : sum local = 6.13936e-11, global = -7.24454e-12, cumulative = -2.23998e-10
max/min FaceAcCourant: 0.0111754/0.00283055
max/min Maf: 0.0533515/0
max/min kappa: 1/0
ExecutionTime = 0.89 s  ClockTime = 1 s

Mean and max Acoustic Courant Numbers = 0.00472244 0.0111754
Courant Number max : 0.00119237 velocity magnitude: 18.1836
Time = 4.8e-06

diagonal:  Solving for rho, Initial residual = 0, Final residual = 0, No Iterations 0
rho max/min : 0.83124 / 0.710718
DILUPBiCG:  Solving for h, Initial residual = 0.00669412, Final residual = 3.85902e-12, No Iterations 1
max/min T: 291.044/286.984
DILUPBiCG:  Solving for p, Initial residual = 9.39227e-05, Final residual = 3.92356e-10, No Iterations 1
max(U): (9.12062 0.000155793 2.13188e-33)
max/min p: 68970/58970
diagonal:  Solving for rho, Initial residual = 0, Final residual = 0, No Iterations 0
rho max/min : 0.83124 / 0.710718
time step continuity errors : sum local = 6.06831e-11, global = -7.22068e-12, cumulative = -2.31218e-10
max/min FaceAcCourant: 0.0111754/0.00283048
max/min Maf: 0.0532749/0
max/min kappa: 1/0
ExecutionTime = 0.91 s  ClockTime = 1 s

Mean and max Acoustic Courant Numbers = 0.00472249 0.0111754
Courant Number max : 0.00119065 velocity magnitude: 18.1573
Time = 4.9e-06

diagonal:  Solving for rho, Initial residual = 0, Final residual = 0, No Iterations 0
rho max/min : 0.83124 / 0.710718
DILUPBiCG:  Solving for h, Initial residual = 0.00655591, Final residual = 3.76219e-12, No Iterations 1
max/min T: 291.052/286.971
DILUPBiCG:  Solving for p, Initial residual = 9.37052e-05, Final residual = 3.87596e-10, No Iterations 1
max(U): (9.26427 0.000157205 2.13188e-33)
max/min p: 68970/58970
diagonal:  Solving for rho, Initial residual = 0, Final residual = 0, No Iterations 0
rho max/min : 0.83124 / 0.710718
time step continuity errors : sum local = 5.99357e-11, global = -6.00746e-12, cumulative = -2.37226e-10
max/min FaceAcCourant: 0.0111754/0.00283042
max/min Maf: 0.053207/0
max/min kappa: 1/0
ExecutionTime = 0.92 s  ClockTime = 1 s

Mean and max Acoustic Courant Numbers = 0.00472254 0.0111754
Courant Number max : 0.00118912 velocity magnitude: 18.1341
Time = 5e-06

diagonal:  Solving for rho, Initial residual = 0, Final residual = 0, No Iterations 0
rho max/min : 0.83124 / 0.710718
DILUPBiCG:  Solving for h, Initial residual = 0.00642554, Final residual = 3.6636e-12, No Iterations 1
max/min T: 291.06/286.958
DILUPBiCG:  Solving for p, Initial residual = 9.3509e-05, Final residual = 3.83573e-10, No Iterations 1
max(U): (9.40629 0.000158561 2.13188e-33)
max/min p: 68970/58970
diagonal:  Solving for rho, Initial residual = 0, Final residual = 0, No Iterations 0
rho max/min : 0.83124 / 0.710718
time step continuity errors : sum local = 5.93024e-11, global = -7.17171e-12, cumulative = -2.44397e-10
max/min FaceAcCourant: 0.0111754/0.00283036
max/min Maf: 0.0531475/0
max/min kappa: 1/0
ExecutionTime = 0.95 s  ClockTime = 1 s

Mean and max Acoustic Courant Numbers = 0.00472259 0.0111754
Courant Number max : 0.00118778 velocity magnitude: 18.1137
Time = 5.1e-06

diagonal:  Solving for rho, Initial residual = 0, Final residual = 0, No Iterations 0
rho max/min : 0.83124 / 0.710718
DILUPBiCG:  Solving for h, Initial residual = 0.00630247, Final residual = 3.58042e-12, No Iterations 1
max/min T: 291.067/286.946
DILUPBiCG:  Solving for p, Initial residual = 9.33333e-05, Final residual = 3.79313e-10, No Iterations 1
max(U): (9.54668 0.00015986 2.13188e-33)
max/min p: 68970/58970
diagonal:  Solving for rho, Initial residual = 0, Final residual = 0, No Iterations 0
rho max/min : 0.83124 / 0.710718
time step continuity errors : sum local = 5.86327e-11, global = -7.14681e-12, cumulative = -2.51544e-10
max/min FaceAcCourant: 0.0111754/0.00283029
max/min Maf: 0.053096/0
max/min kappa: 1/0
ExecutionTime = 0.97 s  ClockTime = 1 s

Mean and max Acoustic Courant Numbers = 0.00472264 0.0111754
Courant Number max : 0.00118662 velocity magnitude: 18.096
Time = 5.2e-06

diagonal:  Solving for rho, Initial residual = 0, Final residual = 0, No Iterations 0
rho max/min : 0.83124 / 0.710718
DILUPBiCG:  Solving for h, Initial residual = 0.00618621, Final residual = 3.48616e-12, No Iterations 1
max/min T: 291.074/286.934
DILUPBiCG:  Solving for p, Initial residual = 9.31771e-05, Final residual = 3.75148e-10, No Iterations 1
max(U): (9.68546 0.000161103 2.13188e-33)
max/min p: 68970/58970
diagonal:  Solving for rho, Initial residual = 0, Final residual = 0, No Iterations 0
rho max/min : 0.83124 / 0.710718
time step continuity errors : sum local = 5.79781e-11, global = -7.12178e-12, cumulative = -2.58666e-10
max/min FaceAcCourant: 0.0111754/0.00283024
max/min Maf: 0.0530522/0
max/min kappa: 1/0
ExecutionTime = 0.98 s  ClockTime = 1 s

Mean and max Acoustic Courant Numbers = 0.00472269 0.0111754
Courant Number max : 0.00118564 velocity magnitude: 18.081
Time = 5.3e-06

diagonal:  Solving for rho, Initial residual = 0, Final residual = 0, No Iterations 0
rho max/min : 0.83124 / 0.710718
DILUPBiCG:  Solving for h, Initial residual = 0.00607629, Final residual = 3.40716e-12, No Iterations 1
max/min T: 291.08/286.923
DILUPBiCG:  Solving for p, Initial residual = 9.30397e-05, Final residual = 3.71063e-10, No Iterations 1
max(U): (9.82264 0.000162292 2.13188e-33)
max/min p: 68970/58970
diagonal:  Solving for rho, Initial residual = 0, Final residual = 0, No Iterations 0
rho max/min : 0.83124 / 0.710718
time step continuity errors : sum local = 5.73361e-11, global = -7.09278e-12, cumulative = -2.65759e-10
max/min FaceAcCourant: 0.0111754/0.00283018
max/min Maf: 0.0530157/0
max/min kappa: 1/0
ExecutionTime = 1 s  ClockTime = 1 s

Mean and max Acoustic Courant Numbers = 0.00472273 0.0111754
Courant Number max : 0.00118481 velocity magnitude: 18.0684
Time = 5.4e-06

diagonal:  Solving for rho, Initial residual = 0, Final residual = 0, No Iterations 0
rho max/min : 0.83124 / 0.710718
DILUPBiCG:  Solving for h, Initial residual = 0.0059723, Final residual = 3.31285e-12, No Iterations 1
max/min T: 291.086/286.911
DILUPBiCG:  Solving for p, Initial residual = 9.29202e-05, Final residual = 3.6693e-10, No Iterations 1
max(U): (9.95824 0.000163425 2.13188e-33)
max/min p: 68970/58970
diagonal:  Solving for rho, Initial residual = 0, Final residual = 0, No Iterations 0
rho max/min : 0.83124 / 0.710718
time step continuity errors : sum local = 5.66868e-11, global = -8.93427e-12, cumulative = -2.74693e-10
max/min FaceAcCourant: 0.0111754/0.00283012
max/min Maf: 0.0529862/0
max/min kappa: 1/0
ExecutionTime = 1.01 s  ClockTime = 1 s

Mean and max Acoustic Courant Numbers = 0.00472278 0.0111754
Courant Number max : 0.00118415 velocity magnitude: 18.0582
Time = 5.5e-06

diagonal:  Solving for rho, Initial residual = 0, Final residual = 0, No Iterations 0
rho max/min : 0.83124 / 0.710718
DILUPBiCG:  Solving for h, Initial residual = 0.00587386, Final residual = 3.22039e-12, No Iterations 1
max/min T: 291.091/286.901
DILUPBiCG:  Solving for p, Initial residual = 9.2818e-05, Final residual = 3.628e-10, No Iterations 1
max(U): (10.0923 0.000164505 2.13188e-33)
max/min p: 68970/58970
diagonal:  Solving for rho, Initial residual = 0, Final residual = 0, No Iterations 0
rho max/min : 0.83124 / 0.710718
time step continuity errors : sum local = 5.60383e-11, global = -8.98395e-12, cumulative = -2.83677e-10
max/min FaceAcCourant: 0.0111754/0.00283007
max/min Maf: 0.0529634/0
max/min kappa: 1/0
ExecutionTime = 1.03 s  ClockTime = 1 s

Mean and max Acoustic Courant Numbers = 0.00472283 0.0111754
Courant Number max : 0.00118363 velocity magnitude: 18.0504
Time = 5.6e-06

diagonal:  Solving for rho, Initial residual = 0, Final residual = 0, No Iterations 0
rho max/min : 0.83124 / 0.710718
DILUPBiCG:  Solving for h, Initial residual = 0.00578061, Final residual = 3.13498e-12, No Iterations 1
max/min T: 291.096/286.891
DILUPBiCG:  Solving for p, Initial residual = 9.27321e-05, Final residual = 3.59709e-10, No Iterations 1
max(U): (10.2247 0.000165532 2.13188e-33)
max/min p: 68970/58970
diagonal:  Solving for rho, Initial residual = 0, Final residual = 0, No Iterations 0
rho max/min : 0.83124 / 0.710718
time step continuity errors : sum local = 5.55505e-11, global = -9.03562e-12, cumulative = -2.92713e-10
max/min FaceAcCourant: 0.0111754/0.00283002
max/min Maf: 0.0529471/0
max/min kappa: 1/0
ExecutionTime = 1.04 s  ClockTime = 1 s

Mean and max Acoustic Courant Numbers = 0.00472288 0.0111754
Courant Number max : 0.00118326 velocity magnitude: 18.0447
Time = 5.7e-06

diagonal:  Solving for rho, Initial residual = 0, Final residual = 0, No Iterations 0
rho max/min : 0.83124 / 0.710718
DILUPBiCG:  Solving for h, Initial residual = 0.00569222, Final residual = 3.06305e-12, No Iterations 1
max/min T: 291.1/286.881
DILUPBiCG:  Solving for p, Initial residual = 9.26621e-05, Final residual = 3.56628e-10, No Iterations 1
max(U): (10.3557 0.000166506 2.13188e-33)
max/min p: 68970/58970
diagonal:  Solving for rho, Initial residual = 0, Final residual = 0, No Iterations 0
rho max/min : 0.83124 / 0.710718
time step continuity errors : sum local = 5.50645e-11, global = -9.0889e-12, cumulative = -3.01802e-10
max/min FaceAcCourant: 0.0111754/0.00282997
max/min Maf: 0.0529369/0
max/min kappa: 1/0
ExecutionTime = 1.06 s  ClockTime = 1 s

Mean and max Acoustic Courant Numbers = 0.00472292 0.0111754
Courant Number max : 0.00118302 velocity magnitude: 18.0411
Time = 5.8e-06

diagonal:  Solving for rho, Initial residual = 0, Final residual = 0, No Iterations 0
rho max/min : 0.83124 / 0.710718
DILUPBiCG:  Solving for h, Initial residual = 0.00560838, Final residual = 2.99184e-12, No Iterations 1
max/min T: 291.104/286.871
DILUPBiCG:  Solving for p, Initial residual = 9.26071e-05, Final residual = 3.53557e-10, No Iterations 1
max(U): (10.4851 0.000167428 2.13188e-33)
max/min p: 68970/58970
diagonal:  Solving for rho, Initial residual = 0, Final residual = 0, No Iterations 0
rho max/min : 0.83124 / 0.710718
time step continuity errors : sum local = 5.45802e-11, global = -9.14368e-12, cumulative = -3.10945e-10
max/min FaceAcCourant: 0.0111754/0.00282993
max/min Maf: 0.0529326/0
max/min kappa: 1/0
ExecutionTime = 1.07 s  ClockTime = 1 s

Mean and max Acoustic Courant Numbers = 0.00472297 0.0111754
Courant Number max : 0.00118292 velocity magnitude: 18.0395
Time = 5.9e-06

diagonal:  Solving for rho, Initial residual = 0, Final residual = 0, No Iterations 0
rho max/min : 0.83124 / 0.710718
DILUPBiCG:  Solving for h, Initial residual = 0.00552881, Final residual = 2.91856e-12, No Iterations 1
max/min T: 291.107/286.862
DILUPBiCG:  Solving for p, Initial residual = 9.25667e-05, Final residual = 3.65858e-10, No Iterations 1
max(U): (10.613 0.000168299 2.13188e-33)
max/min p: 68970/58970
diagonal:  Solving for rho, Initial residual = 0, Final residual = 0, No Iterations 0
rho max/min : 0.83124 / 0.710718
time step continuity errors : sum local = 5.64687e-11, global = -7.61649e-12, cumulative = -3.18562e-10
max/min FaceAcCourant: 0.0111754/0.00282988
max/min Maf: 0.0529339/0
max/min kappa: 1/0
ExecutionTime = 1.08 s  ClockTime = 1 s

Mean and max Acoustic Courant Numbers = 0.00472302 0.0111754
Courant Number max : 0.00118294 velocity magnitude: 18.0398
Time = 6e-06

diagonal:  Solving for rho, Initial residual = 0, Final residual = 0, No Iterations 0
rho max/min : 0.83124 / 0.710718
DILUPBiCG:  Solving for h, Initial residual = 0.00545324, Final residual = 2.84499e-12, No Iterations 1
max/min T: 291.11/286.853
DILUPBiCG:  Solving for p, Initial residual = 9.25401e-05, Final residual = 3.48066e-10, No Iterations 1
max(U): (10.7394 0.000169119 2.13188e-33)
max/min p: 68970/58970
diagonal:  Solving for rho, Initial residual = 0, Final residual = 0, No Iterations 0
rho max/min : 0.83124 / 0.710718
time step continuity errors : sum local = 5.37125e-11, global = -9.25747e-12, cumulative = -3.27819e-10
max/min FaceAcCourant: 0.0111754/0.00282984
max/min Maf: 0.0529405/0
max/min kappa: 1/0
ExecutionTime = 1.1 s  ClockTime = 1 s

Mean and max Acoustic Courant Numbers = 0.00472306 0.0111754
Courant Number max : 0.00118308 velocity magnitude: 18.042
Time = 6.1e-06

diagonal:  Solving for rho, Initial residual = 0, Final residual = 0, No Iterations 0
rho max/min : 0.83124 / 0.710718
DILUPBiCG:  Solving for h, Initial residual = 0.00538144, Final residual = 2.75985e-12, No Iterations 1
max/min T: 291.113/286.844
DILUPBiCG:  Solving for p, Initial residual = 9.25268e-05, Final residual = 3.45983e-10, No Iterations 1
max(U): (10.8644 0.00016989 2.13188e-33)
max/min p: 68970/58970
diagonal:  Solving for rho, Initial residual = 0, Final residual = 0, No Iterations 0
rho max/min : 0.83124 / 0.710718
time step continuity errors : sum local = 5.33812e-11, global = -9.31637e-12, cumulative = -3.37136e-10
max/min FaceAcCourant: 0.0111754/0.00282979
max/min Maf: 0.0529524/0
max/min kappa: 1/0
ExecutionTime = 1.13 s  ClockTime = 1 s

Mean and max Acoustic Courant Numbers = 0.00472311 0.0111754
Courant Number max : 0.00118334 velocity magnitude: 18.0459
Time = 6.2e-06

diagonal:  Solving for rho, Initial residual = 0, Final residual = 0, No Iterations 0
rho max/min : 0.83124 / 0.710718
DILUPBiCG:  Solving for h, Initial residual = 0.00531318, Final residual = 2.67762e-12, No Iterations 1
max/min T: 291.115/286.836
DILUPBiCG:  Solving for p, Initial residual = 9.25262e-05, Final residual = 3.44395e-10, No Iterations 1
max(U): (10.9878 0.000170611 2.13188e-33)
max/min p: 68970/58970
diagonal:  Solving for rho, Initial residual = 0, Final residual = 0, No Iterations 0
rho max/min : 0.83124 / 0.710718
time step continuity errors : sum local = 5.31263e-11, global = -9.37658e-12, cumulative = -3.46512e-10
max/min FaceAcCourant: 0.0111754/0.00282975
max/min Maf: 0.0529691/0
max/min kappa: 1/0
ExecutionTime = 1.14 s  ClockTime = 1 s

Mean and max Acoustic Courant Numbers = 0.00472315 0.0111754
Courant Number max : 0.0011837 velocity magnitude: 18.0515
Time = 6.3e-06

diagonal:  Solving for rho, Initial residual = 0, Final residual = 0, No Iterations 0
rho max/min : 0.83124 / 0.710718
DILUPBiCG:  Solving for h, Initial residual = 0.00524824, Final residual = 2.58773e-12, No Iterations 1
max/min T: 291.117/286.828
DILUPBiCG:  Solving for p, Initial residual = 9.25378e-05, Final residual = 3.42672e-10, No Iterations 1
max(U): (11.1099 0.000171283 2.13188e-33)
max/min p: 68970/58970
diagonal:  Solving for rho, Initial residual = 0, Final residual = 0, No Iterations 0
rho max/min : 0.83124 / 0.710718
time step continuity errors : sum local = 5.28506e-11, global = -9.43804e-12, cumulative = -3.5595e-10
max/min FaceAcCourant: 0.0111754/0.00282971
max/min Maf: 0.0529905/0
max/min kappa: 1/0
ExecutionTime = 1.16 s  ClockTime = 1 s

Mean and max Acoustic Courant Numbers = 0.0047232 0.0111754
Courant Number max : 0.00118417 velocity magnitude: 18.0586
Time = 6.4e-06

diagonal:  Solving for rho, Initial residual = 0, Final residual = 0, No Iterations 0
rho max/min : 0.83124 / 0.710718
DILUPBiCG:  Solving for h, Initial residual = 0.00518643, Final residual = 2.59975e-12, No Iterations 1
max/min T: 291.119/286.821
DILUPBiCG:  Solving for p, Initial residual = 9.25611e-05, Final residual = 3.40432e-10, No Iterations 1
max(U): (11.2305 0.000171907 2.13188e-33)
max/min p: 68970/58970
diagonal:  Solving for rho, Initial residual = 0, Final residual = 0, No Iterations 0
rho max/min : 0.83124 / 0.710718
time step continuity errors : sum local = 5.24954e-11, global = -9.50087e-12, cumulative = -3.65451e-10
max/min FaceAcCourant: 0.0111754/0.00282968
max/min Maf: 0.0530165/0
max/min kappa: 1/0
ExecutionTime = 1.18 s  ClockTime = 1 s

Mean and max Acoustic Courant Numbers = 0.00472324 0.0111754
Courant Number max : 0.00118474 velocity magnitude: 18.0673
Time = 6.5e-06

diagonal:  Solving for rho, Initial residual = 0, Final residual = 0, No Iterations 0
rho max/min : 0.83124 / 0.710718
DILUPBiCG:  Solving for h, Initial residual = 0.00512757, Final residual = 2.52359e-12, No Iterations 1
max/min T: 291.12/286.813
DILUPBiCG:  Solving for p, Initial residual = 9.25956e-05, Final residual = 3.37911e-10, No Iterations 1
max(U): (11.3497 0.000172483 2.13188e-33)
max/min p: 68970/58970
diagonal:  Solving for rho, Initial residual = 0, Final residual = 0, No Iterations 0
rho max/min : 0.83124 / 0.710718
time step continuity errors : sum local = 5.2097e-11, global = -9.56493e-12, cumulative = -3.75016e-10
max/min FaceAcCourant: 0.0111754/0.00282964
max/min Maf: 0.0530467/0
max/min kappa: 1/0
ExecutionTime = 1.19 s  ClockTime = 1 s

Mean and max Acoustic Courant Numbers = 0.00472328 0.0111754
Courant Number max : 0.00118541 velocity magnitude: 18.0775
Time = 6.6e-06

diagonal:  Solving for rho, Initial residual = 0, Final residual = 0, No Iterations 0
rho max/min : 0.83124 / 0.710718
DILUPBiCG:  Solving for h, Initial residual = 0.00507149, Final residual = 2.44726e-12, No Iterations 1
max/min T: 291.121/286.806
DILUPBiCG:  Solving for p, Initial residual = 9.26409e-05, Final residual = 3.34678e-10, No Iterations 1
max(U): (11.4674 0.000173011 2.13188e-33)
max/min p: 68970/58970
diagonal:  Solving for rho, Initial residual = 0, Final residual = 0, No Iterations 0
rho max/min : 0.83124 / 0.710718
time step continuity errors : sum local = 5.15889e-11, global = -7.26668e-12, cumulative = -3.82283e-10
max/min FaceAcCourant: 0.0111754/0.0028296
max/min Maf: 0.053081/0
max/min kappa: 1/0
ExecutionTime = 1.21 s  ClockTime = 1 s

Mean and max Acoustic Courant Numbers = 0.00472333 0.0111754
Courant Number max : 0.00118617 velocity magnitude: 18.0891
Time = 6.7e-06

diagonal:  Solving for rho, Initial residual = 0, Final residual = 0, No Iterations 0
rho max/min : 0.83124 / 0.710718
DILUPBiCG:  Solving for h, Initial residual = 0.00501802, Final residual = 2.37016e-12, No Iterations 1
max/min T: 291.122/286.799
DILUPBiCG:  Solving for p, Initial residual = 9.26964e-05, Final residual = 3.3245e-10, No Iterations 1
max(U): (11.5839 0.000173492 2.13188e-33)
max/min p: 68970/58970
diagonal:  Solving for rho, Initial residual = 0, Final residual = 0, No Iterations 0
rho max/min : 0.83124 / 0.710718
time step continuity errors : sum local = 5.12361e-11, global = -9.69635e-12, cumulative = -3.91979e-10
max/min FaceAcCourant: 0.0111754/0.00282957
max/min Maf: 0.0531192/0
max/min kappa: 1/0
ExecutionTime = 1.22 s  ClockTime = 1 s

Mean and max Acoustic Courant Numbers = 0.00472337 0.0111754
Courant Number max : 0.00118702 velocity magnitude: 18.102
Time = 6.8e-06

diagonal:  Solving for rho, Initial residual = 0, Final residual = 0, No Iterations 0
rho max/min : 0.83124 / 0.710718
DILUPBiCG:  Solving for h, Initial residual = 0.00496701, Final residual = 2.29345e-12, No Iterations 1
max/min T: 291.122/286.792
DILUPBiCG:  Solving for p, Initial residual = 9.27619e-05, Final residual = 3.29622e-10, No Iterations 1
max(U): (11.6989 0.000173926 2.13188e-33)
max/min p: 68970/58970
diagonal:  Solving for rho, Initial residual = 0, Final residual = 0, No Iterations 0
rho max/min : 0.83124 / 0.710718
time step continuity errors : sum local = 5.07908e-11, global = -9.76341e-12, cumulative = -4.01742e-10
max/min FaceAcCourant: 0.0111754/0.00282954
max/min Maf: 0.0531611/0
max/min kappa: 1/0
ExecutionTime = 1.24 s  ClockTime = 1 s

Mean and max Acoustic Courant Numbers = 0.00472342 0.0111754
Courant Number max : 0.00118794 velocity magnitude: 18.1161
Time = 6.9e-06

diagonal:  Solving for rho, Initial residual = 0, Final residual = 0, No Iterations 0
rho max/min : 0.83124 / 0.710718
DILUPBiCG:  Solving for h, Initial residual = 0.00491834, Final residual = 2.21799e-12, No Iterations 1
max/min T: 291.122/286.786
DILUPBiCG:  Solving for p, Initial residual = 9.28367e-05, Final residual = 3.26759e-10, No Iterations 1
max(U): (11.8126 0.000174313 2.13188e-33)
max/min p: 68970/58970
diagonal:  Solving for rho, Initial residual = 0, Final residual = 0, No Iterations 0
rho max/min : 0.83124 / 0.710718
time step continuity errors : sum local = 5.03403e-11, global = -9.83121e-12, cumulative = -4.11574e-10
max/min FaceAcCourant: 0.0111754/0.00282951
max/min Maf: 0.0532066/0
max/min kappa: 1/0
ExecutionTime = 1.25 s  ClockTime = 1 s

Mean and max Acoustic Courant Numbers = 0.00472346 0.0111754
Courant Number max : 0.00118895 velocity magnitude: 18.1315
Time = 7e-06

diagonal:  Solving for rho, Initial residual = 0, Final residual = 0, No Iterations 0
rho max/min : 0.83124 / 0.710718
DILUPBiCG:  Solving for h, Initial residual = 0.00490832, Final residual = 2.14373e-12, No Iterations 1
max/min T: 291.122/286.78
DILUPBiCG:  Solving for p, Initial residual = 9.29206e-05, Final residual = 3.14198e-10, No Iterations 1
max(U): (11.9249 0.000174654 2.13188e-33)
max/min p: 68970/58970
diagonal:  Solving for rho, Initial residual = 0, Final residual = 0, No Iterations 0
rho max/min : 0.83124 / 0.710718
time step continuity errors : sum local = 4.83961e-11, global = -1.15086e-11, cumulative = -4.23082e-10
max/min FaceAcCourant: 0.0111754/0.00282947
max/min Maf: 0.0532555/0
max/min kappa: 1/0
ExecutionTime = 1.27 s  ClockTime = 1 s

Mean and max Acoustic Courant Numbers = 0.0047235 0.0111754
Courant Number max : 0.00119004 velocity magnitude: 18.1481
Time = 7.1e-06

diagonal:  Solving for rho, Initial residual = 0, Final residual = 0, No Iterations 0
rho max/min : 0.83124 / 0.710718
DILUPBiCG:  Solving for h, Initial residual = 0.00490121, Final residual = 2.06947e-12, No Iterations 1
max/min T: 291.121/286.774
DILUPBiCG:  Solving for p, Initial residual = 9.30132e-05, Final residual = 3.11082e-10, No Iterations 1
max(U): (12.036 0.000174949 2.13188e-33)
max/min p: 68970/58970
diagonal:  Solving for rho, Initial residual = 0, Final residual = 0, No Iterations 0
rho max/min : 0.83124 / 0.710718
time step continuity errors : sum local = 4.79072e-11, global = -1.16241e-11, cumulative = -4.34706e-10
max/min FaceAcCourant: 0.0111754/0.00282945
max/min Maf: 0.0533077/0
max/min kappa: 1/0
ExecutionTime = 1.28 s  ClockTime = 1 s

Mean and max Acoustic Courant Numbers = 0.00472354 0.0111754
Courant Number max : 0.00119119 velocity magnitude: 18.1657
Time = 7.2e-06

diagonal:  Solving for rho, Initial residual = 0, Final residual = 0, No Iterations 0
rho max/min : 0.83124 / 0.710718
DILUPBiCG:  Solving for h, Initial residual = 0.00489452, Final residual = 1.99742e-12, No Iterations 1
max/min T: 291.12/286.768
DILUPBiCG:  Solving for p, Initial residual = 9.31141e-05, Final residual = 3.07945e-10, No Iterations 1
max(U): (12.1457 0.000175197 2.13188e-33)
max/min p: 68970/58970
diagonal:  Solving for rho, Initial residual = 0, Final residual = 0, No Iterations 0
rho max/min : 0.83124 / 0.710718
time step continuity errors : sum local = 4.74153e-11, global = -1.17403e-11, cumulative = -4.46447e-10
max/min FaceAcCourant: 0.0111754/0.00282942
max/min Maf: 0.0533629/0
max/min kappa: 1/0
ExecutionTime = 1.31 s  ClockTime = 1 s

Mean and max Acoustic Courant Numbers = 0.00472359 0.0111754
Courant Number max : 0.00119242 velocity magnitude: 18.1844
Time = 7.3e-06

diagonal:  Solving for rho, Initial residual = 0, Final residual = 0, No Iterations 0
rho max/min : 0.83124 / 0.710718
DILUPBiCG:  Solving for h, Initial residual = 0.00488826, Final residual = 1.93685e-12, No Iterations 1
max/min T: 291.119/286.762
DILUPBiCG:  Solving for p, Initial residual = 9.3223e-05, Final residual = 3.04815e-10, No Iterations 1
max(U): (12.2542 0.0001754 2.13188e-33)
max/min p: 68970/58970
diagonal:  Solving for rho, Initial residual = 0, Final residual = 0, No Iterations 0
rho max/min : 0.83124 / 0.710718
time step continuity errors : sum local = 4.69245e-11, global = -1.18569e-11, cumulative = -4.58303e-10
max/min FaceAcCourant: 0.0111754/0.00282939
max/min Maf: 0.053421/0
max/min kappa: 1/0
ExecutionTime = 1.33 s  ClockTime = 1 s

Mean and max Acoustic Courant Numbers = 0.00472363 0.0111754
Courant Number max : 0.00119371 velocity magnitude: 18.2041
Time = 7.4e-06

diagonal:  Solving for rho, Initial residual = 0, Final residual = 0, No Iterations 0
rho max/min : 0.83124 / 0.710718
DILUPBiCG:  Solving for h, Initial residual = 0.00488243, Final residual = 1.87572e-12, No Iterations 1
max/min T: 291.118/286.757
DILUPBiCG:  Solving for p, Initial residual = 9.33395e-05, Final residual = 3.02528e-10, No Iterations 1
max(U): (12.3613 0.000175556 2.13188e-33)
max/min p: 68970/58970
diagonal:  Solving for rho, Initial residual = 0, Final residual = 0, No Iterations 0
rho max/min : 0.83124 / 0.710718
time step continuity errors : sum local = 4.65638e-11, global = -1.19734e-11, cumulative = -4.70277e-10
max/min FaceAcCourant: 0.0111754/0.00282936
max/min Maf: 0.0534819/0
max/min kappa: 1/0
ExecutionTime = 1.34 s  ClockTime = 1 s

Mean and max Acoustic Courant Numbers = 0.00472367 0.0111754
Courant Number max : 0.00119506 velocity magnitude: 18.2247
Time = 7.5e-06

diagonal:  Solving for rho, Initial residual = 0, Final residual = 0, No Iterations 0
rho max/min : 0.83124 / 0.710718
DILUPBiCG:  Solving for h, Initial residual = 0.00487704, Final residual = 1.81589e-12, No Iterations 1
max/min T: 291.116/286.752
DILUPBiCG:  Solving for p, Initial residual = 9.34633e-05, Final residual = 3.00295e-10, No Iterations 1
max(U): (12.4673 0.000175667 2.13188e-33)
max/min p: 68970/58970
diagonal:  Solving for rho, Initial residual = 0, Final residual = 0, No Iterations 0
rho max/min : 0.83124 / 0.710718
time step continuity errors : sum local = 4.62114e-11, global = -1.20896e-11, cumulative = -4.82366e-10
max/min FaceAcCourant: 0.0111754/0.00282934
max/min Maf: 0.0535455/0
max/min kappa: 1/0
ExecutionTime = 1.36 s  ClockTime = 1 s

Mean and max Acoustic Courant Numbers = 0.00472371 0.0111754
Courant Number max : 0.00119647 velocity magnitude: 18.2462
Time = 7.6e-06

diagonal:  Solving for rho, Initial residual = 0, Final residual = 0, No Iterations 0
rho max/min : 0.83124 / 0.710718
DILUPBiCG:  Solving for h, Initial residual = 0.00487209, Final residual = 1.75771e-12, No Iterations 1
max/min T: 291.115/286.747
DILUPBiCG:  Solving for p, Initial residual = 9.35941e-05, Final residual = 2.9858e-10, No Iterations 1
max(U): (12.5719 0.000175732 2.13188e-33)
max/min p: 68970/58970
diagonal:  Solving for rho, Initial residual = 0, Final residual = 0, No Iterations 0
rho max/min : 0.83124 / 0.710718
time step continuity errors : sum local = 4.59388e-11, global = -1.22048e-11, cumulative = -4.94571e-10
max/min FaceAcCourant: 0.0111754/0.00282931
max/min Maf: 0.0536116/0
max/min kappa: 1/0
ExecutionTime = 1.38 s  ClockTime = 1 s

Mean and max Acoustic Courant Numbers = 0.00472376 0.0111754
Courant Number max : 0.00119794 velocity magnitude: 18.2686
Time = 7.7e-06

diagonal:  Solving for rho, Initial residual = 0, Final residual = 0, No Iterations 0
rho max/min : 0.83124 / 0.710718
DILUPBiCG:  Solving for h, Initial residual = 0.00486759, Final residual = 1.70279e-12, No Iterations 1
max/min T: 291.113/286.742
DILUPBiCG:  Solving for p, Initial residual = 9.37317e-05, Final residual = 2.96449e-10, No Iterations 1
max(U): (12.6754 0.000175752 2.13188e-33)
max/min p: 68970/58970
diagonal:  Solving for rho, Initial residual = 0, Final residual = 0, No Iterations 0
rho max/min : 0.83124 / 0.710718
time step continuity errors : sum local = 4.56024e-11, global = -9.07729e-12, cumulative = -5.03649e-10
max/min FaceAcCourant: 0.0111754/0.00282929
max/min Maf: 0.05368/0
max/min kappa: 1/0
ExecutionTime = 1.39 s  ClockTime = 1 s

Mean and max Acoustic Courant Numbers = 0.0047238 0.0111754
Courant Number max : 0.00119946 velocity magnitude: 18.2918
Time = 7.8e-06

diagonal:  Solving for rho, Initial residual = 0, Final residual = 0, No Iterations 0
rho max/min : 0.83124 / 0.710718
DILUPBiCG:  Solving for h, Initial residual = 0.00486353, Final residual = 1.65329e-12, No Iterations 1
max/min T: 291.11/286.737
DILUPBiCG:  Solving for p, Initial residual = 9.38756e-05, Final residual = 2.96296e-10, No Iterations 1
max(U): (12.7776 0.000175725 2.13188e-33)
max/min p: 68970/58970
diagonal:  Solving for rho, Initial residual = 0, Final residual = 0, No Iterations 0
rho max/min : 0.83124 / 0.710718
time step continuity errors : sum local = 4.55704e-11, global = -9.12617e-12, cumulative = -5.12775e-10
max/min FaceAcCourant: 0.0111754/0.00282927
max/min Maf: 0.0537507/0
max/min kappa: 1/0
ExecutionTime = 1.41 s  ClockTime = 1 s

Mean and max Acoustic Courant Numbers = 0.00472384 0.0111754
Courant Number max : 0.00120103 velocity magnitude: 18.3158
Time = 7.9e-06

diagonal:  Solving for rho, Initial residual = 0, Final residual = 0, No Iterations 0
rho max/min : 0.83124 / 0.710718
DILUPBiCG:  Solving for h, Initial residual = 0.00485992, Final residual = 1.60536e-12, No Iterations 1
max/min T: 291.108/286.733
DILUPBiCG:  Solving for p, Initial residual = 9.40256e-05, Final residual = 2.93822e-10, No Iterations 1
max(U): (12.8787 0.000175647 2.13188e-33)
max/min p: 68970/58970
diagonal:  Solving for rho, Initial residual = 0, Final residual = 0, No Iterations 0
rho max/min : 0.83124 / 0.710718
time step continuity errors : sum local = 4.51813e-11, global = -9.14735e-12, cumulative = -5.21922e-10
max/min FaceAcCourant: 0.0111754/0.00282924
max/min Maf: 0.0538235/0
max/min kappa: 1/0
ExecutionTime = 1.43 s  ClockTime = 1 s

Mean and max Acoustic Courant Numbers = 0.00472388 0.0111754
Courant Number max : 0.00120265 velocity magnitude: 18.3404
Time = 8e-06

diagonal:  Solving for rho, Initial residual = 0, Final residual = 0, No Iterations 0
rho max/min : 0.83124 / 0.710718
DILUPBiCG:  Solving for h, Initial residual = 0.00485677, Final residual = 1.64233e-12, No Iterations 1
max/min T: 291.105/286.729
DILUPBiCG:  Solving for p, Initial residual = 9.41816e-05, Final residual = 3.02419e-10, No Iterations 1
max(U): (12.9786 0.000175515 2.13188e-33)
max/min p: 68970/58970
diagonal:  Solving for rho, Initial residual = 0, Final residual = 0, No Iterations 0
rho max/min : 0.83124 / 0.710718
time step continuity errors : sum local = 4.64946e-11, global = -1.27195e-11, cumulative = -5.34642e-10
max/min FaceAcCourant: 0.0111754/0.00282922
max/min Maf: 0.0538983/0
max/min kappa: 1/0
ExecutionTime = 1.44 s  ClockTime = 1 s

Mean and max Acoustic Courant Numbers = 0.00472392 0.0111754
Courant Number max : 0.00120431 velocity magnitude: 18.3658
Time = 8.1e-06

diagonal:  Solving for rho, Initial residual = 0, Final residual = 0, No Iterations 0
rho max/min : 0.83124 / 0.710718
DILUPBiCG:  Solving for h, Initial residual = 0.00485405, Final residual = 1.60629e-12, No Iterations 1
max/min T: 291.102/286.725
DILUPBiCG:  Solving for p, Initial residual = 9.43431e-05, Final residual = 3.05822e-10, No Iterations 1
max(U): (13.0773 0.000175331 2.13188e-33)
max/min p: 68970/58970
diagonal:  Solving for rho, Initial residual = 0, Final residual = 0, No Iterations 0
rho max/min : 0.83124 / 0.710718
time step continuity errors : sum local = 4.70089e-11, global = -1.28352e-11, cumulative = -5.47477e-10
max/min FaceAcCourant: 0.0111754/0.0028292
max/min Maf: 0.053975/0
max/min kappa: 1/0
ExecutionTime = 1.46 s  ClockTime = 1 s

Mean and max Acoustic Courant Numbers = 0.00472396 0.0111754
Courant Number max : 0.00120602 velocity magnitude: 18.3918
Time = 8.2e-06

diagonal:  Solving for rho, Initial residual = 0, Final residual = 0, No Iterations 0
rho max/min : 0.83124 / 0.710718
DILUPBiCG:  Solving for h, Initial residual = 0.00485179, Final residual = 1.57334e-12, No Iterations 1
max/min T: 291.098/286.721
DILUPBiCG:  Solving for p, Initial residual = 9.45099e-05, Final residual = 3.06087e-10, No Iterations 1
max(U): (13.1748 0.000175094 2.13188e-33)
max/min p: 68970/58970
diagonal:  Solving for rho, Initial residual = 0, Final residual = 0, No Iterations 0
rho max/min : 0.83124 / 0.710718
time step continuity errors : sum local = 4.70406e-11, global = -1.29496e-11, cumulative = -5.60426e-10
max/min FaceAcCourant: 0.0111754/0.00282918
max/min Maf: 0.0540535/0
max/min kappa: 1/0
ExecutionTime = 1.48 s  ClockTime = 1 s

Mean and max Acoustic Courant Numbers = 0.004724 0.0111754
Courant Number max : 0.00120776 velocity magnitude: 18.4184
Time = 8.3e-06

diagonal:  Solving for rho, Initial residual = 0, Final residual = 0, No Iterations 0
rho max/min : 0.83124 / 0.710718
DILUPBiCG:  Solving for h, Initial residual = 0.00484998, Final residual = 1.54333e-12, No Iterations 1
max/min T: 291.095/286.717
DILUPBiCG:  Solving for p, Initial residual = 9.46819e-05, Final residual = 3.01939e-10, No Iterations 1
max(U): (13.2712 0.000174805 2.13188e-33)
max/min p: 68970/58970
diagonal:  Solving for rho, Initial residual = 0, Final residual = 0, No Iterations 0
rho max/min : 0.83124 / 0.710718
time step continuity errors : sum local = 4.63943e-11, global = -1.68593e-11, cumulative = -5.77286e-10
max/min FaceAcCourant: 0.0111754/0.00282916
max/min Maf: 0.0541336/0
max/min kappa: 1/0
ExecutionTime = 1.5 s  ClockTime = 1 s

Mean and max Acoustic Courant Numbers = 0.00472404 0.0111754
Courant Number max : 0.00120954 velocity magnitude: 18.4456
Time = 8.4e-06

diagonal:  Solving for rho, Initial residual = 0, Final residual = 0, No Iterations 0
rho max/min : 0.83124 / 0.710718
DILUPBiCG:  Solving for h, Initial residual = 0.0048486, Final residual = 1.51751e-12, No Iterations 1
max/min T: 291.091/286.713
DILUPBiCG:  Solving for p, Initial residual = 9.48588e-05, Final residual = 2.98429e-10, No Iterations 1
max(U): (13.3665 0.000174465 2.13188e-33)
max/min p: 68970/58970
diagonal:  Solving for rho, Initial residual = 0, Final residual = 0, No Iterations 0
rho max/min : 0.83124 / 0.710718
time step continuity errors : sum local = 4.58464e-11, global = -1.3178e-11, cumulative = -5.90464e-10
max/min FaceAcCourant: 0.0111754/0.00282915
max/min Maf: 0.0542153/0
max/min kappa: 1/0
ExecutionTime = 1.52 s  ClockTime = 1 s

Mean and max Acoustic Courant Numbers = 0.00472409 0.0111754
Courant Number max : 0.00121136 velocity magnitude: 18.4732
Time = 8.5e-06

diagonal:  Solving for rho, Initial residual = 0, Final residual = 0, No Iterations 0
rho max/min : 0.83124 / 0.710718
DILUPBiCG:  Solving for h, Initial residual = 0.00484767, Final residual = 1.49351e-12, No Iterations 1
max/min T: 291.087/286.71
DILUPBiCG:  Solving for p, Initial residual = 9.50403e-05, Final residual = 2.96677e-10, No Iterations 1
max(U): (13.4608 0.000174074 2.13188e-33)
max/min p: 68970/58970
diagonal:  Solving for rho, Initial residual = 0, Final residual = 0, No Iterations 0
rho max/min : 0.83124 / 0.710718
time step continuity errors : sum local = 4.55686e-11, global = -1.32887e-11, cumulative = -6.03752e-10
max/min FaceAcCourant: 0.0111754/0.00282913
max/min Maf: 0.0542984/0
max/min kappa: 1/0
ExecutionTime = 1.53 s  ClockTime = 1 s

Mean and max Acoustic Courant Numbers = 0.00472413 0.0111754
Courant Number max : 0.00121321 velocity magnitude: 18.5014
Time = 8.6e-06

diagonal:  Solving for rho, Initial residual = 0, Final residual = 0, No Iterations 0
rho max/min : 0.83124 / 0.710718
DILUPBiCG:  Solving for h, Initial residual = 0.00484718, Final residual = 1.47177e-12, No Iterations 1
max/min T: 291.083/286.706
DILUPBiCG:  Solving for p, Initial residual = 9.52263e-05, Final residual = 2.95776e-10, No Iterations 1
max(U): (13.5539 0.000173631 2.13188e-33)
max/min p: 68970/58970
diagonal:  Solving for rho, Initial residual = 0, Final residual = 0, No Iterations 0
rho max/min : 0.83124 / 0.710718
time step continuity errors : sum local = 4.54215e-11, global = -1.33969e-11, cumulative = -6.17149e-10
max/min FaceAcCourant: 0.0111754/0.00282911
max/min Maf: 0.0543829/0
max/min kappa: 1/0
ExecutionTime = 1.55 s  ClockTime = 1 s

Mean and max Acoustic Courant Numbers = 0.00472417 0.0111754
Courant Number max : 0.00121509 velocity magnitude: 18.5301
[...]
Courant Number max : 0.00125599 velocity magnitude: 19.1539
Time = 0.0002479

diagonal:  Solving for rho, Initial residual = 0, Final residual = 0, No Iterations 0
rho max/min : 0.83124 / 0.710718
DILUPBiCG:  Solving for h, Initial residual = 0.000223781, Final residual = 4.07997e-15, No Iterations 1
max/min T: 295.589/282.491
DILUPBiCG:  Solving for p, Initial residual = 0.000239956, Final residual = 4.51246e-10, No Iterations 1
max(U): (19.0528 2.69822e-05 2.13188e-33)
max/min p: 68970/58970
diagonal:  Solving for rho, Initial residual = 0, Final residual = 0, No Iterations 0
rho max/min : 0.83124 / 0.710718
time step continuity errors : sum local = 3.28007e-11, global = 1.41054e-12, cumulative = 8.48227e-09
max/min FaceAcCourant: 0.0111754/0.00280824
max/min Maf: 0.0565582/0
max/min kappa: 1/0
ExecutionTime = 32.53 s  ClockTime = 33 s

Mean and max Acoustic Courant Numbers = 0.00483814 0.0111754
Courant Number max : 0.00125599 velocity magnitude: 19.1539
Time = 0.000248

diagonal:  Solving for rho, Initial residual = 0, Final residual = 0, No Iterations 0
rho max/min : 0.83124 / 0.710718
DILUPBiCG:  Solving for h, Initial residual = 0.000223686, Final residual = 4.08641e-15, No Iterations 1
max/min T: 295.589/282.491
DILUPBiCG:  Solving for p, Initial residual = 0.000240067, Final residual = 4.52017e-10, No Iterations 1
max(U): (19.0528 2.69666e-05 2.13188e-33)
max/min p: 68970/58970
diagonal:  Solving for rho, Initial residual = 0, Final residual = 0, No Iterations 0
rho max/min : 0.83124 / 0.710718
time step continuity errors : sum local = 3.28415e-11, global = -2.07461e-12, cumulative = 8.48019e-09
max/min FaceAcCourant: 0.0111754/0.00280824
max/min Maf: 0.0565582/0
max/min kappa: 1/0
ExecutionTime = 32.54 s  ClockTime = 33 s

Mean and max Acoustic Courant Numbers = 0.00483819 0.0111754
Courant Number max : 0.00125599 velocity magnitude: 19.1538
Time = 0.0002481

diagonal:  Solving for rho, Initial residual = 0, Final residual = 0, No Iterations 0
rho max/min : 0.83124 / 0.710718
DILUPBiCG:  Solving for h, Initial residual = 0.000223592, Final residual = 4.07971e-15, No Iterations 1
max/min T: 295.589/282.492
DILUPBiCG:  Solving for p, Initial residual = 0.000240178, Final residual = 4.57647e-10, No Iterations 1
max(U): (19.0528 2.69508e-05 2.13188e-33)
max/min p: 68970/58970
diagonal:  Solving for rho, Initial residual = 0, Final residual = 0, No Iterations 0
rho max/min : 0.83124 / 0.710718
time step continuity errors : sum local = 3.32352e-11, global = -2.13027e-12, cumulative = 8.47806e-09
max/min FaceAcCourant: 0.0111754/0.00280824
max/min Maf: 0.0565582/0
max/min kappa: 1/0
ExecutionTime = 32.54 s  ClockTime = 33 s

Mean and max Acoustic Courant Numbers = 0.00483823 0.0111754
Courant Number max : 0.00125599 velocity magnitude: 19.1538
Time = 0.0002482

diagonal:  Solving for rho, Initial residual = 0, Final residual = 0, No Iterations 0
rho max/min : 0.83124 / 0.710718
DILUPBiCG:  Solving for h, Initial residual = 0.000223498, Final residual = 4.09073e-15, No Iterations 1
max/min T: 295.589/282.492
DILUPBiCG:  Solving for p, Initial residual = 0.00024029, Final residual = 4.61498e-10, No Iterations 1
max(U): (19.0527 2.69345e-05 2.13188e-33)
max/min p: 68970/58970
diagonal:  Solving for rho, Initial residual = 0, Final residual = 0, No Iterations 0
rho max/min : 0.83124 / 0.710718
time step continuity errors : sum local = 3.34994e-11, global = 1.06619e-12, cumulative = 8.47913e-09
max/min FaceAcCourant: 0.0111754/0.00280824
max/min Maf: 0.0565582/0
max/min kappa: 1/0
ExecutionTime = 32.55 s  ClockTime = 33 s

Mean and max Acoustic Courant Numbers = 0.00483828 0.0111754
Courant Number max : 0.00125599 velocity magnitude: 19.1538
Time = 0.0002483

diagonal:  Solving for rho, Initial residual = 0, Final residual = 0, No Iterations 0
rho max/min : 0.83124 / 0.710718
DILUPBiCG:  Solving for h, Initial residual = 0.000223404, Final residual = 4.10588e-15, No Iterations 1
max/min T: 295.589/282.492
DILUPBiCG:  Solving for p, Initial residual = 0.000240401, Final residual = 4.62739e-10, No Iterations 1
max(U): (19.0527 2.6918e-05 2.13188e-33)
max/min p: 68970/58970
diagonal:  Solving for rho, Initial residual = 0, Final residual = 0, No Iterations 0
rho max/min : 0.83124 / 0.710718
time step continuity errors : sum local = 3.35738e-11, global = -2.23788e-12, cumulative = 8.47689e-09
max/min FaceAcCourant: 0.0111754/0.00280824
max/min Maf: 0.0565581/0
max/min kappa: 1/0
ExecutionTime = 32.56 s  ClockTime = 33 s

Mean and max Acoustic Courant Numbers = 0.00483833 0.0111754
Courant Number max : 0.00125599 velocity magnitude: 19.1538
Time = 0.0002484

diagonal:  Solving for rho, Initial residual = 0, Final residual = 0, No Iterations 0
rho max/min : 0.83124 / 0.710718
DILUPBiCG:  Solving for h, Initial residual = 0.00022331, Final residual = 4.10333e-15, No Iterations 1
max/min T: 295.588/282.492
DILUPBiCG:  Solving for p, Initial residual = 0.000240513, Final residual = 4.65937e-10, No Iterations 1
max(U): (19.0527 2.69011e-05 2.13188e-33)
max/min p: 68970/58970
diagonal:  Solving for rho, Initial residual = 0, Final residual = 0, No Iterations 0
rho max/min : 0.83124 / 0.710718
time step continuity errors : sum local = 3.37901e-11, global = -2.29277e-12, cumulative = 8.4746e-09
max/min FaceAcCourant: 0.0111754/0.00280824
max/min Maf: 0.0565581/0
max/min kappa: 1/0
ExecutionTime = 32.57 s  ClockTime = 33 s

Mean and max Acoustic Courant Numbers = 0.00483838 0.0111754
Courant Number max : 0.00125599 velocity magnitude: 19.1538
Time = 0.0002485

diagonal:  Solving for rho, Initial residual = 0, Final residual = 0, No Iterations 0
rho max/min : 0.83124 / 0.710718
DILUPBiCG:  Solving for h, Initial residual = 0.000223216, Final residual = 4.18049e-15, No Iterations 1
max/min T: 295.588/282.492
DILUPBiCG:  Solving for p, Initial residual = 0.000240625, Final residual = 4.67686e-10, No Iterations 1
max(U): (19.0527 2.6884e-05 2.13188e-33)
max/min p: 68970/58970
diagonal:  Solving for rho, Initial residual = 0, Final residual = 0, No Iterations 0
rho max/min : 0.83124 / 0.710718
time step continuity errors : sum local = 3.39012e-11, global = 1.34564e-12, cumulative = 8.47595e-09
max/min FaceAcCourant: 0.0111754/0.00280824
max/min Maf: 0.0565581/0
max/min kappa: 1/0
ExecutionTime = 32.58 s  ClockTime = 33 s

Mean and max Acoustic Courant Numbers = 0.00483843 0.0111754
Courant Number max : 0.00125598 velocity magnitude: 19.1538
Time = 0.0002486

diagonal:  Solving for rho, Initial residual = 0, Final residual = 0, No Iterations 0
rho max/min : 0.83124 / 0.710718
DILUPBiCG:  Solving for h, Initial residual = 0.000223123, Final residual = 4.18389e-15, No Iterations 1
max/min T: 295.588/282.492
DILUPBiCG:  Solving for p, Initial residual = 0.000240737, Final residual = 4.68844e-10, No Iterations 1
max(U): (19.0527 2.68958e-05 2.13188e-33)
max/min p: 68970/58970
diagonal:  Solving for rho, Initial residual = 0, Final residual = 0, No Iterations 0
rho max/min : 0.83124 / 0.710718
time step continuity errors : sum local = 3.39693e-11, global = -1.7549e-12, cumulative = 8.47419e-09
max/min FaceAcCourant: 0.0111754/0.00280824
max/min Maf: 0.0565581/0
max/min kappa: 1/0
ExecutionTime = 32.59 s  ClockTime = 33 s

Mean and max Acoustic Courant Numbers = 0.00483847 0.0111754
Courant Number max : 0.00125598 velocity magnitude: 19.1538
Time = 0.0002487

diagonal:  Solving for rho, Initial residual = 0, Final residual = 0, No Iterations 0
rho max/min : 0.83124 / 0.710718
DILUPBiCG:  Solving for h, Initial residual = 0.000223029, Final residual = 4.1891e-15, No Iterations 1
max/min T: 295.588/282.492
DILUPBiCG:  Solving for p, Initial residual = 0.00024085, Final residual = 4.70605e-10, No Iterations 1
max(U): (19.0527 2.69362e-05 2.13188e-33)
max/min p: 68970/58970
diagonal:  Solving for rho, Initial residual = 0, Final residual = 0, No Iterations 0
rho max/min : 0.83124 / 0.710718
time step continuity errors : sum local = 3.40811e-11, global = -1.85237e-12, cumulative = 8.47234e-09
max/min FaceAcCourant: 0.0111754/0.00280824
max/min Maf: 0.0565581/0
max/min kappa: 1/0
ExecutionTime = 32.6 s  ClockTime = 33 s

Mean and max Acoustic Courant Numbers = 0.00483852 0.0111754
Courant Number max : 0.00125598 velocity magnitude: 19.1537
Time = 0.0002488

diagonal:  Solving for rho, Initial residual = 0, Final residual = 0, No Iterations 0
rho max/min : 0.83124 / 0.710718
DILUPBiCG:  Solving for h, Initial residual = 0.000222936, Final residual = 4.20112e-15, No Iterations 1
max/min T: 295.588/282.492
DILUPBiCG:  Solving for p, Initial residual = 0.000240963, Final residual = 4.75037e-10, No Iterations 1
max(U): (19.0527 2.69755e-05 2.13188e-33)
max/min p: 68970/58970
diagonal:  Solving for rho, Initial residual = 0, Final residual = 0, No Iterations 0
rho max/min : 0.83124 / 0.710718
time step continuity errors : sum local = 3.4386e-11, global = -1.88187e-12, cumulative = 8.47046e-09
max/min FaceAcCourant: 0.0111754/0.00280824
max/min Maf: 0.0565581/0
max/min kappa: 1/0
ExecutionTime = 32.61 s  ClockTime = 33 s

Mean and max Acoustic Courant Numbers = 0.00483857 0.0111754
Courant Number max : 0.00125598 velocity magnitude: 19.1537
Time = 0.0002489

diagonal:  Solving for rho, Initial residual = 0, Final residual = 0, No Iterations 0
rho max/min : 0.83124 / 0.710718
DILUPBiCG:  Solving for h, Initial residual = 0.000222843, Final residual = 4.22149e-15, No Iterations 1
max/min T: 295.588/282.492
DILUPBiCG:  Solving for p, Initial residual = 0.000241075, Final residual = 4.75341e-10, No Iterations 1
max(U): (19.0527 2.70138e-05 2.13188e-33)
max/min p: 68970/58970
diagonal:  Solving for rho, Initial residual = 0, Final residual = 0, No Iterations 0
rho max/min : 0.83124 / 0.710718
time step continuity errors : sum local = 3.4392e-11, global = 1.07402e-12, cumulative = 8.47153e-09
max/min FaceAcCourant: 0.0111754/0.00280824
max/min Maf: 0.0565581/0
max/min kappa: 1/0
ExecutionTime = 32.62 s  ClockTime = 33 s

Mean and max Acoustic Courant Numbers = 0.00483862 0.0111754
Courant Number max : 0.00125598 velocity magnitude: 19.1537
Time = 0.000249

diagonal:  Solving for rho, Initial residual = 0, Final residual = 0, No Iterations 0
rho max/min : 0.83124 / 0.710718
DILUPBiCG:  Solving for h, Initial residual = 0.00022275, Final residual = 4.21604e-15, No Iterations 1
max/min T: 295.588/282.492
DILUPBiCG:  Solving for p, Initial residual = 0.000241188, Final residual = 4.7812e-10, No Iterations 1
max(U): (19.0527 2.70511e-05 2.13188e-33)
max/min p: 68970/58970
diagonal:  Solving for rho, Initial residual = 0, Final residual = 0, No Iterations 0
rho max/min : 0.83124 / 0.710718
time step continuity errors : sum local = 3.45769e-11, global = -1.93759e-12, cumulative = 8.46959e-09
max/min FaceAcCourant: 0.0111754/0.00280824
max/min Maf: 0.0565581/0
max/min kappa: 1/0
ExecutionTime = 32.63 s  ClockTime = 33 s

Mean and max Acoustic Courant Numbers = 0.00483867 0.0111754
Courant Number max : 0.00125598 velocity magnitude: 19.1537
Time = 0.0002491

diagonal:  Solving for rho, Initial residual = 0, Final residual = 0, No Iterations 0
rho max/min : 0.83124 / 0.710718
DILUPBiCG:  Solving for h, Initial residual = 0.000222657, Final residual = 4.21156e-15, No Iterations 1
max/min T: 295.588/282.492
DILUPBiCG:  Solving for p, Initial residual = 0.000241301, Final residual = 4.81841e-10, No Iterations 1
max(U): (19.0527 2.70874e-05 2.13188e-33)
max/min p: 68970/58970
diagonal:  Solving for rho, Initial residual = 0, Final residual = 0, No Iterations 0
rho max/min : 0.83124 / 0.710718
time step continuity errors : sum local = 3.48298e-11, global = -1.96399e-12, cumulative = 8.46763e-09
max/min FaceAcCourant: 0.0111754/0.00280824
max/min Maf: 0.056558/0
max/min kappa: 1/0
ExecutionTime = 32.64 s  ClockTime = 33 s

Mean and max Acoustic Courant Numbers = 0.00483871 0.0111754
Courant Number max : 0.00125598 velocity magnitude: 19.1537
Time = 0.0002492

diagonal:  Solving for rho, Initial residual = 0, Final residual = 0, No Iterations 0
rho max/min : 0.83124 / 0.710718
DILUPBiCG:  Solving for h, Initial residual = 0.000222564, Final residual = 4.21568e-15, No Iterations 1
max/min T: 295.588/282.492
DILUPBiCG:  Solving for p, Initial residual = 0.000241414, Final residual = 4.87016e-10, No Iterations 1
max(U): (19.0527 2.71228e-05 2.13188e-33)
max/min p: 68970/58970
diagonal:  Solving for rho, Initial residual = 0, Final residual = 0, No Iterations 0
rho max/min : 0.83124 / 0.710718
time step continuity errors : sum local = 3.51874e-11, global = -1.26444e-12, cumulative = 8.46636e-09
max/min FaceAcCourant: 0.0111754/0.00280824
max/min Maf: 0.056558/0
max/min kappa: 1/0
ExecutionTime = 32.65 s  ClockTime = 33 s

Mean and max Acoustic Courant Numbers = 0.00483876 0.0111754
Courant Number max : 0.00125598 velocity magnitude: 19.1537
Time = 0.0002493

diagonal:  Solving for rho, Initial residual = 0, Final residual = 0, No Iterations 0
rho max/min : 0.83124 / 0.710718
DILUPBiCG:  Solving for h, Initial residual = 0.000222471, Final residual = 4.24043e-15, No Iterations 1
max/min T: 295.588/282.492
DILUPBiCG:  Solving for p, Initial residual = 0.000241527, Final residual = 4.88035e-10, No Iterations 1
max(U): (19.0527 2.71572e-05 2.13188e-33)
max/min p: 68970/58970
diagonal:  Solving for rho, Initial residual = 0, Final residual = 0, No Iterations 0
rho max/min : 0.83124 / 0.710718
time step continuity errors : sum local = 3.52445e-11, global = 1.56886e-12, cumulative = 8.46793e-09
max/min FaceAcCourant: 0.0111754/0.00280824
max/min Maf: 0.056558/0
max/min kappa: 1/0
ExecutionTime = 32.66 s  ClockTime = 33 s

Mean and max Acoustic Courant Numbers = 0.00483881 0.0111754
Courant Number max : 0.00125598 velocity magnitude: 19.1536
Time = 0.0002494

diagonal:  Solving for rho, Initial residual = 0, Final residual = 0, No Iterations 0
rho max/min : 0.83124 / 0.710718
DILUPBiCG:  Solving for h, Initial residual = 0.000222378, Final residual = 4.25404e-15, No Iterations 1
max/min T: 295.588/282.492
DILUPBiCG:  Solving for p, Initial residual = 0.000241641, Final residual = 4.91883e-10, No Iterations 1
max(U): (19.0527 2.71907e-05 2.13188e-33)
max/min p: 68970/58970
diagonal:  Solving for rho, Initial residual = 0, Final residual = 0, No Iterations 0
rho max/min : 0.83124 / 0.710718
time step continuity errors : sum local = 3.55058e-11, global = -1.26557e-12, cumulative = 8.46667e-09
max/min FaceAcCourant: 0.0111754/0.00280824
max/min Maf: 0.056558/0
max/min kappa: 1/0
ExecutionTime = 32.67 s  ClockTime = 33 s

Mean and max Acoustic Courant Numbers = 0.00483886 0.0111754
Courant Number max : 0.00125598 velocity magnitude: 19.1536
Time = 0.0002495

diagonal:  Solving for rho, Initial residual = 0, Final residual = 0, No Iterations 0
rho max/min : 0.83124 / 0.710718
DILUPBiCG:  Solving for h, Initial residual = 0.000222285, Final residual = 4.2742e-15, No Iterations 1
max/min T: 295.588/282.492
DILUPBiCG:  Solving for p, Initial residual = 0.000241754, Final residual = 4.96116e-10, No Iterations 1
max(U): (19.0527 2.72232e-05 2.13188e-33)
max/min p: 68970/58970
diagonal:  Solving for rho, Initial residual = 0, Final residual = 0, No Iterations 0
rho max/min : 0.83124 / 0.710718
time step continuity errors : sum local = 3.57946e-11, global = -1.2582e-12, cumulative = 8.46541e-09
max/min FaceAcCourant: 0.0111754/0.00280824
max/min Maf: 0.056558/0
max/min kappa: 1/0
ExecutionTime = 32.67 s  ClockTime = 33 s

Mean and max Acoustic Courant Numbers = 0.00483891 0.0111754
Courant Number max : 0.00125597 velocity magnitude: 19.1536
Time = 0.0002496

diagonal:  Solving for rho, Initial residual = 0, Final residual = 0, No Iterations 0
rho max/min : 0.83124 / 0.710718
DILUPBiCG:  Solving for h, Initial residual = 0.000222192, Final residual = 4.305e-15, No Iterations 1
max/min T: 295.588/282.492
DILUPBiCG:  Solving for p, Initial residual = 0.000241868, Final residual = 5.01484e-10, No Iterations 1
max(U): (19.0527 2.72548e-05 2.13188e-33)
max/min p: 68970/58970
diagonal:  Solving for rho, Initial residual = 0, Final residual = 0, No Iterations 0
rho max/min : 0.83124 / 0.710718
time step continuity errors : sum local = 3.61649e-11, global = -1.23616e-12, cumulative = 8.46417e-09
max/min FaceAcCourant: 0.0111754/0.00280824
max/min Maf: 0.056558/0
max/min kappa: 1/0
ExecutionTime = 32.68 s  ClockTime = 33 s

Mean and max Acoustic Courant Numbers = 0.00483896 0.0111754
Courant Number max : 0.00125597 velocity magnitude: 19.1536
Time = 0.0002497

diagonal:  Solving for rho, Initial residual = 0, Final residual = 0, No Iterations 0
rho max/min : 0.83124 / 0.710718
DILUPBiCG:  Solving for h, Initial residual = 0.0002221, Final residual = 4.34459e-15, No Iterations 1
max/min T: 295.588/282.492
DILUPBiCG:  Solving for p, Initial residual = 0.000241981, Final residual = 5.08189e-10, No Iterations 1
max(U): (19.0527 2.72855e-05 2.13188e-33)
max/min p: 68970/58970
diagonal:  Solving for rho, Initial residual = 0, Final residual = 0, No Iterations 0
rho max/min : 0.83124 / 0.710718
time step continuity errors : sum local = 3.66312e-11, global = 2.92496e-12, cumulative = 8.4671e-09
max/min FaceAcCourant: 0.0111754/0.00280824
max/min Maf: 0.056558/0
max/min kappa: 1/0
ExecutionTime = 32.69 s  ClockTime = 33 s

Mean and max Acoustic Courant Numbers = 0.004839 0.0111754
Courant Number max : 0.00125597 velocity magnitude: 19.1536
Time = 0.0002498

diagonal:  Solving for rho, Initial residual = 0, Final residual = 0, No Iterations 0
rho max/min : 0.83124 / 0.710718
DILUPBiCG:  Solving for h, Initial residual = 0.000222007, Final residual = 4.34268e-15, No Iterations 1
max/min T: 295.588/282.492
DILUPBiCG:  Solving for p, Initial residual = 0.000242095, Final residual = 5.10369e-10, No Iterations 1
max(U): (19.0526 2.73154e-05 2.13188e-33)
max/min p: 68970/58970
diagonal:  Solving for rho, Initial residual = 0, Final residual = 0, No Iterations 0
rho max/min : 0.83124 / 0.710718
time step continuity errors : sum local = 3.67712e-11, global = 2.96217e-12, cumulative = 8.47006e-09
max/min FaceAcCourant: 0.0111754/0.00280824
max/min Maf: 0.0565579/0
max/min kappa: 1/0
ExecutionTime = 32.7 s  ClockTime = 33 s

Mean and max Acoustic Courant Numbers = 0.00483905 0.0111754
Courant Number max : 0.00125597 velocity magnitude: 19.1536
Time = 0.0002499

diagonal:  Solving for rho, Initial residual = 0, Final residual = 0, No Iterations 0
rho max/min : 0.83124 / 0.710718
DILUPBiCG:  Solving for h, Initial residual = 0.000221914, Final residual = 4.34235e-15, No Iterations 1
max/min T: 295.588/282.492
DILUPBiCG:  Solving for p, Initial residual = 0.000242209, Final residual = 5.14063e-10, No Iterations 1
max(U): (19.0526 2.73443e-05 2.13188e-33)
max/min p: 68970/58970
diagonal:  Solving for rho, Initial residual = 0, Final residual = 0, No Iterations 0
rho max/min : 0.83124 / 0.710718
time step continuity errors : sum local = 3.70198e-11, global = 3.12125e-12, cumulative = 8.47318e-09
max/min FaceAcCourant: 0.0111754/0.00280824
max/min Maf: 0.0565579/0
max/min kappa: 1/0
ExecutionTime = 32.71 s  ClockTime = 33 s

Mean and max Acoustic Courant Numbers = 0.0048391 0.0111754
Courant Number max : 0.00125597 velocity magnitude: 19.1535
Time = 0.00025

diagonal:  Solving for rho, Initial residual = 0, Final residual = 0, No Iterations 0
rho max/min : 0.83124 / 0.710718
DILUPBiCG:  Solving for h, Initial residual = 0.000221822, Final residual = 4.34757e-15, No Iterations 1
max/min T: 295.588/282.492
DILUPBiCG:  Solving for p, Initial residual = 0.000242323, Final residual = 5.0847e-10, No Iterations 1
max(U): (19.0526 2.73724e-05 2.13188e-33)
max/min p: 68970/58970
diagonal:  Solving for rho, Initial residual = 0, Final residual = 0, No Iterations 0
rho max/min : 0.83124 / 0.710718
time step continuity errors : sum local = 3.65999e-11, global = 5.71816e-12, cumulative = 8.4789e-09
max/min FaceAcCourant: 0.0111754/0.00280824
max/min Maf: 0.0565579/0
max/min kappa: 1/0
ExecutionTime = 32.75 s  ClockTime = 33 s

End

