/*---------------------------------------------------------------------------*\
| =========                 |                                                 |
| \\      /  F ield         | OpenFOAM: The Open Source CFD Toolbox           |
|  \\    /   O peration     | Version:  3.0.1                                 |
|   \\  /    A nd           | Web:      www.OpenFOAM.org                      |
|    \\/     M anipulation  |                                                 |
\*---------------------------------------------------------------------------*/
Build  : 3.0.1-d8a290b55d28
Exec   : pisoCentralFoam
Date   : Oct 13 2016
Time   : 14:10:18
Host   : "bl022.unicluster.ru"
PID    : 7477
Case   : /lustre/unicluster/home/matvey.kraposhin/run/Unicfdlab/github-hybridCentralSolvers/Tutorials-3.0.1/case-subsonic/Std-4
nProcs : 1
sigFpe : Enabling floating point exception trapping (FOAM_SIGFPE).
fileModificationChecking : Monitoring run-time modified files using timeStampMaster
allowSystemOperations : Allowing user-supplied system call operations

// * * * * * * * * * * * * * * * * * * * * * * * * * * * * * * * * * * * * * //
Create time

Create mesh for time = 0


PIMPLE: Operating solver in PISO mode

Reading thermophysical properties

Selecting thermodynamics package 
{
    type            hePsiThermo;
    mixture         pureMixture;
    transport       const;
    thermo          hConst;
    equationOfState perfectGas;
    specie          specie;
    energy          sensibleEnthalpy;
}

Reading field U

Creating field kinetic energy K

Selecting finite volume kappaFunction type standardMachToAcCourantRatio
Creating turbulence model

Selecting turbulence model type laminar
No finite volume options present

No MRF models present

Marking cells with bad quality to limit pressure gradient
max/min FaceAcCourant: 8.33333e-18/4.16667e-18
max/min Maf: 0/0
max/min kappa: 0/0
Courant Number max : 0 velocity magnitude: 0

Starting time loop

Mean and max Acoustic Courant Numbers = 4.16667e-18 8.33333e-18
Courant Number max : 0 velocity magnitude: 0
Time = 2.5e-05

diagonal:  Solving for rho, Initial residual = 0, Final residual = 0, No Iterations 0
rho max/min : 0.83124 / 0.710718
DILUPBiCG:  Solving for h, Initial residual = 1, Final residual = 2.49911e-17, No Iterations 1
max/min T: 289/289
DILUPBiCG:  Solving for p, Initial residual = 0.122369, Final residual = 2.78929e-10, No Iterations 12
max(U): (18.1696 0.356339 5.32971e-31)
max/min p: 68970/58970
diagonal:  Solving for rho, Initial residual = 0, Final residual = 0, No Iterations 0
rho max/min : 0.83124 / 0.710718
time step continuity errors : sum local = 4.96828e-11, global = 1.19932e-11, cumulative = 1.19932e-11
max/min FaceAcCourant: 2.79384/0.710102
max/min Maf: 0.0662794/0
max/min kappa: 0.0445651/0
ExecutionTime = 0.13 s  ClockTime = 0 s

Mean and max Acoustic Courant Numbers = 1.18256 2.79384
Courant Number max : 0.370348 velocity magnitude: 22.5912
Time = 5e-05

diagonal:  Solving for rho, Initial residual = 0, Final residual = 0, No Iterations 0
rho max/min : 0.83124 / 0.710718
DILUPBiCG:  Solving for h, Initial residual = 1, Final residual = 4.14581e-14, No Iterations 3
max/min T: 295.697/279.295
DILUPBiCG:  Solving for p, Initial residual = 0.0516218, Final residual = 8.4862e-10, No Iterations 14
max(U): (23.582 0.963174 5.32971e-31)
max/min p: 68970/58970
diagonal:  Solving for rho, Initial residual = 0, Final residual = 0, No Iterations 0
rho max/min : 0.83124 / 0.710718
time step continuity errors : sum local = 1.27928e-10, global = 8.95406e-12, cumulative = 2.09473e-11
max/min FaceAcCourant: 2.79384/0.703678
max/min Maf: 0.0611276/0
max/min kappa: 0.0407188/0
ExecutionTime = 0.18 s  ClockTime = 0 s

Mean and max Acoustic Courant Numbers = 1.18598 2.79384
Courant Number max : 0.344921 velocity magnitude: 21.0402
Time = 7.5e-05

diagonal:  Solving for rho, Initial residual = 0, Final residual = 0, No Iterations 0
rho max/min : 0.83124 / 0.710718
DILUPBiCG:  Solving for h, Initial residual = 0.350946, Final residual = 7.28778e-13, No Iterations 3
max/min T: 294.86/279.218
DILUPBiCG:  Solving for p, Initial residual = 0.0476453, Final residual = 8.22863e-10, No Iterations 14
max(U): (23.7185 1.13576 5.3297e-31)
max/min p: 68970/58970
diagonal:  Solving for rho, Initial residual = 0, Final residual = 0, No Iterations 0
rho max/min : 0.83124 / 0.710718
time step continuity errors : sum local = 1.16476e-10, global = 2.09736e-11, cumulative = 4.19209e-11
max/min FaceAcCourant: 2.79384/0.702362
max/min Maf: 0.060406/0
max/min kappa: 0.0411411/0
ExecutionTime = 0.2 s  ClockTime = 0 s

Mean and max Acoustic Courant Numbers = 1.18903 2.79384
Courant Number max : 0.334578 velocity magnitude: 20.4093
Time = 0.0001

diagonal:  Solving for rho, Initial residual = 0, Final residual = 0, No Iterations 0
rho max/min : 0.83124 / 0.710718
DILUPBiCG:  Solving for h, Initial residual = 0.239456, Final residual = 7.57278e-10, No Iterations 2
max/min T: 295.315/280.563
DILUPBiCG:  Solving for p, Initial residual = 0.0457094, Final residual = 6.4875e-10, No Iterations 14
max(U): (21.9561 1.21147 5.32965e-31)
max/min p: 68970/58970
diagonal:  Solving for rho, Initial residual = 0, Final residual = 0, No Iterations 0
rho max/min : 0.83124 / 0.710718
time step continuity errors : sum local = 8.51816e-11, global = 1.21898e-11, cumulative = 5.41107e-11
max/min FaceAcCourant: 2.79384/0.702258
max/min Maf: 0.0587166/0
max/min kappa: 0.0400261/0
ExecutionTime = 0.25 s  ClockTime = 0 s

Mean and max Acoustic Courant Numbers = 1.19198 2.79384
Courant Number max : 0.324518 velocity magnitude: 19.7956
Time = 0.000125

diagonal:  Solving for rho, Initial residual = 0, Final residual = 0, No Iterations 0
rho max/min : 0.83124 / 0.710718
DILUPBiCG:  Solving for h, Initial residual = 0.17007, Final residual = 4.06734e-10, No Iterations 2
max/min T: 295.485/281.347
DILUPBiCG:  Solving for p, Initial residual = 0.044545, Final residual = 4.28841e-10, No Iterations 14
max(U): (20.6013 1.17142 5.32945e-31)
max/min p: 68969.9/58970.1
diagonal:  Solving for rho, Initial residual = 0, Final residual = 0, No Iterations 0
rho max/min : 0.83124 / 0.710718
time step continuity errors : sum local = 5.22211e-11, global = 1.01291e-11, cumulative = 6.42398e-11
max/min FaceAcCourant: 2.79384/0.701904
max/min Maf: 0.0579455/0
max/min kappa: 0.0396184/0
ExecutionTime = 0.27 s  ClockTime = 0 s

Mean and max Acoustic Courant Numbers = 1.19495 2.79384
Courant Number max : 0.321131 velocity magnitude: 19.589
Time = 0.00015

diagonal:  Solving for rho, Initial residual = 0, Final residual = 0, No Iterations 0
rho max/min : 0.831239 / 0.710719
DILUPBiCG:  Solving for h, Initial residual = 0.129363, Final residual = 1.32738e-10, No Iterations 2
max/min T: 295.498/281.725
DILUPBiCG:  Solving for p, Initial residual = 0.0449199, Final residual = 4.00023e-10, No Iterations 14
max(U): (19.9871 1.08006 5.3288e-31)
max/min p: 68969.6/58970.4
diagonal:  Solving for rho, Initial residual = 0, Final residual = 0, No Iterations 0
rho max/min : 0.831239 / 0.710719
time step continuity errors : sum local = 4.50022e-11, global = 5.81059e-12, cumulative = 7.00503e-11
max/min FaceAcCourant: 2.79384/0.701992
max/min Maf: 0.0576541/0
max/min kappa: 0.039449/0
ExecutionTime = 0.33 s  ClockTime = 0 s

Mean and max Acoustic Courant Numbers = 1.19794 2.79384
Courant Number max : 0.31973 velocity magnitude: 19.5035
Time = 0.000175

diagonal:  Solving for rho, Initial residual = 0, Final residual = 0, No Iterations 0
rho max/min : 0.831235 / 0.710723
DILUPBiCG:  Solving for h, Initial residual = 0.103926, Final residual = 6.17936e-11, No Iterations 2
max/min T: 295.502/281.927
DILUPBiCG:  Solving for p, Initial residual = 0.0470135, Final residual = 4.58621e-10, No Iterations 14
max(U): (19.7043 0.927208 5.32708e-31)
max/min p: 68968.4/58971.8
diagonal:  Solving for rho, Initial residual = 0, Final residual = 0, No Iterations 0
rho max/min : 0.831235 / 0.710723
time step continuity errors : sum local = 4.75131e-11, global = 1.32102e-12, cumulative = 7.13714e-11
max/min FaceAcCourant: 2.79385/0.701999
max/min Maf: 0.0574339/0
max/min kappa: 0.0393029/0
ExecutionTime = 0.34 s  ClockTime = 0 s

Mean and max Acoustic Courant Numbers = 1.20092 2.79385
Courant Number max : 0.318468 velocity magnitude: 19.4266
Time = 0.0002

diagonal:  Solving for rho, Initial residual = 0, Final residual = 0, No Iterations 0
rho max/min : 0.831222 / 0.710738
DILUPBiCG:  Solving for h, Initial residual = 0.0869987, Final residual = 4.32096e-11, No Iterations 2
max/min T: 295.502/282.073
DILUPBiCG:  Solving for p, Initial residual = 0.0501419, Final residual = 4.39545e-10, No Iterations 14
max(U): (19.5365 0.780197 5.32332e-31)
max/min p: 68964.3/58976.3
diagonal:  Solving for rho, Initial residual = 0, Final residual = 0, No Iterations 0
rho max/min : 0.831222 / 0.710738
time step continuity errors : sum local = 4.17069e-11, global = 1.17655e-12, cumulative = 7.25479e-11
max/min FaceAcCourant: 2.79386/0.702038
max/min Maf: 0.0572404/0
max/min kappa: 0.0391928/0
ExecutionTime = 0.39 s  ClockTime = 0 s

Mean and max Acoustic Courant Numbers = 1.2039 2.79386
Courant Number max : 0.317671 velocity magnitude: 19.3779
Time = 0.000225

diagonal:  Solving for rho, Initial residual = 0, Final residual = 0, No Iterations 0
rho max/min : 0.831177 / 0.710787
DILUPBiCG:  Solving for h, Initial residual = 0.0749962, Final residual = 1.81742e-11, No Iterations 2
max/min T: 295.5/282.185
DILUPBiCG:  Solving for p, Initial residual = 0.0542584, Final residual = 4.28425e-10, No Iterations 14
max(U): (19.4243 0.673014 5.31637e-31)
max/min p: 68952.9/58989.2
diagonal:  Solving for rho, Initial residual = 0, Final residual = 0, No Iterations 0
rho max/min : 0.831177 / 0.710787
time step continuity errors : sum local = 3.69679e-11, global = 1.59725e-12, cumulative = 7.41452e-11
max/min FaceAcCourant: 2.7939/0.702026
max/min Maf: 0.0571827/0
max/min kappa: 0.0391473/0
ExecutionTime = 0.41 s  ClockTime = 0 s

Mean and max Acoustic Courant Numbers = 1.20688 2.7939
Courant Number max : 0.317272 velocity magnitude: 19.3536
Time = 0.00025

diagonal:  Solving for rho, Initial residual = 0, Final residual = 0, No Iterations 0
rho max/min : 0.831053 / 0.710928
DILUPBiCG:  Solving for h, Initial residual = 0.065993, Final residual = 9.7949e-12, No Iterations 2
max/min T: 295.5/282.27
DILUPBiCG:  Solving for p, Initial residual = 0.0594541, Final residual = 4.30439e-10, No Iterations 14
max(U): (19.3498 0.606251 5.56798e-31)
max/min p: 68924.6/59021.9
diagonal:  Solving for rho, Initial residual = 0, Final residual = 0, No Iterations 0
rho max/min : 0.831053 / 0.710928
time step continuity errors : sum local = 3.34487e-11, global = 1.06312e-13, cumulative = 7.42515e-11
max/min FaceAcCourant: 2.79402/0.702051
max/min Maf: 0.0571083/0
max/min kappa: 0.0390991/0
ExecutionTime = 0.47 s  ClockTime = 0 s

End

