/*---------------------------------------------------------------------------*\
| =========                 |                                                 |
| \\      /  F ield         | OpenFOAM: The Open Source CFD Toolbox           |
|  \\    /   O peration     | Version:  3.0.1                                 |
|   \\  /    A nd           | Web:      www.OpenFOAM.org                      |
|    \\/     M anipulation  |                                                 |
\*---------------------------------------------------------------------------*/
Build  : 3.0.1-d8a290b55d28
Exec   : rhoPimpleFoam
Date   : Oct 13 2016
Time   : 17:15:18
Host   : "bl022.unicluster.ru"
PID    : 17203
Case   : /lustre/unicluster/home/matvey.kraposhin/run/Unicfdlab/github-hybridCentralSolvers/Tutorials-3.0.1/case-subsonic/Piso-4
nProcs : 1
sigFpe : Enabling floating point exception trapping (FOAM_SIGFPE).
fileModificationChecking : Monitoring run-time modified files using timeStampMaster
allowSystemOperations : Allowing user-supplied system call operations

// * * * * * * * * * * * * * * * * * * * * * * * * * * * * * * * * * * * * * //
Create time

Create mesh for time = 0


PIMPLE: Operating solver in PISO mode

Reading thermophysical properties

Selecting thermodynamics package 
{
    type            hePsiThermo;
    mixture         pureMixture;
    transport       const;
    thermo          hConst;
    equationOfState perfectGas;
    specie          specie;
    energy          sensibleEnthalpy;
}

Reading field U

Reading/calculating face flux field phi

Creating turbulence model

Selecting turbulence model type laminar
Creating field dpdt

Creating field kinetic energy K

No MRF models present

No finite volume options present

Courant Number mean: 0 max: 0

Starting time loop

Courant Number mean: 0 max: 0
Time = 2.5e-05

diagonal:  Solving for rho, Initial residual = 0, Final residual = 0, No Iterations 0
PIMPLE: iteration 1
DILUPBiCG:  Solving for h, Initial residual = 1, Final residual = 2.49911e-17, No Iterations 1
DILUPBiCG:  Solving for p, Initial residual = 0.100309, Final residual = 3.48218e-10, No Iterations 14
diagonal:  Solving for rho, Initial residual = 0, Final residual = 0, No Iterations 0
time step continuity errors : sum local = 6.05034e-11, global = -4.24088e-14, cumulative = -4.24088e-14
rho max/min : 0.83124 0.710718
ExecutionTime = 0.07 s  ClockTime = 0 s

Courant Number mean: 0.00873279 max: 0.152018
Time = 5e-05

diagonal:  Solving for rho, Initial residual = 0, Final residual = 0, No Iterations 0
PIMPLE: iteration 1
DILUPBiCG:  Solving for h, Initial residual = 1, Final residual = 8.04772e-13, No Iterations 1
DILUPBiCG:  Solving for p, Initial residual = 0.0531653, Final residual = 4.22083e-10, No Iterations 14
diagonal:  Solving for rho, Initial residual = 0, Final residual = 0, No Iterations 0
time step continuity errors : sum local = 6.36899e-11, global = -4.63299e-13, cumulative = -5.05708e-13
rho max/min : 0.83124 0.710718
ExecutionTime = 0.09 s  ClockTime = 0 s

Courant Number mean: 0.017389 max: 0.164655
Time = 7.5e-05

diagonal:  Solving for rho, Initial residual = 0, Final residual = 0, No Iterations 0
PIMPLE: iteration 1
DILUPBiCG:  Solving for h, Initial residual = 0.352901, Final residual = 2.97128e-11, No Iterations 2
DILUPBiCG:  Solving for p, Initial residual = 0.0446592, Final residual = 4.48273e-10, No Iterations 14
diagonal:  Solving for rho, Initial residual = 0, Final residual = 0, No Iterations 0
time step continuity errors : sum local = 6.28997e-11, global = 3.15054e-13, cumulative = -1.90654e-13
rho max/min : 0.83124 0.710718
ExecutionTime = 0.1 s  ClockTime = 0 s

Courant Number mean: 0.0261085 max: 0.162013
Time = 0.0001

diagonal:  Solving for rho, Initial residual = 0, Final residual = 0, No Iterations 0
PIMPLE: iteration 1
DILUPBiCG:  Solving for h, Initial residual = 0.232471, Final residual = 2.2717e-12, No Iterations 2
DILUPBiCG:  Solving for p, Initial residual = 0.0420006, Final residual = 3.01194e-10, No Iterations 14
diagonal:  Solving for rho, Initial residual = 0, Final residual = 0, No Iterations 0
time step continuity errors : sum local = 3.92837e-11, global = 3.61005e-13, cumulative = 1.70351e-13
rho max/min : 0.83124 0.710718
ExecutionTime = 0.11 s  ClockTime = 0 s

Courant Number mean: 0.0348262 max: 0.160648
Time = 0.000125

diagonal:  Solving for rho, Initial residual = 0, Final residual = 0, No Iterations 0
PIMPLE: iteration 1
DILUPBiCG:  Solving for h, Initial residual = 0.167433, Final residual = 2.05609e-13, No Iterations 2
DILUPBiCG:  Solving for p, Initial residual = 0.0430791, Final residual = 9.81097e-10, No Iterations 13
diagonal:  Solving for rho, Initial residual = 0, Final residual = 0, No Iterations 0
time step continuity errors : sum local = 1.18917e-10, global = -2.57943e-13, cumulative = -8.75921e-14
rho max/min : 0.831239 0.710719
ExecutionTime = 0.12 s  ClockTime = 0 s

Courant Number mean: 0.043553 max: 0.160028
Time = 0.00015

diagonal:  Solving for rho, Initial residual = 0, Final residual = 0, No Iterations 0
PIMPLE: iteration 1
DILUPBiCG:  Solving for h, Initial residual = 0.129603, Final residual = 4.43834e-15, No Iterations 2
DILUPBiCG:  Solving for p, Initial residual = 0.0439692, Final residual = 8.26457e-10, No Iterations 13
diagonal:  Solving for rho, Initial residual = 0, Final residual = 0, No Iterations 0
time step continuity errors : sum local = 9.27253e-11, global = 6.83497e-13, cumulative = 5.95905e-13
rho max/min : 0.831234 0.710724
ExecutionTime = 0.15 s  ClockTime = 0 s

Courant Number mean: 0.0522959 max: 0.159817
Time = 0.000175

diagonal:  Solving for rho, Initial residual = 0, Final residual = 0, No Iterations 0
PIMPLE: iteration 1
DILUPBiCG:  Solving for h, Initial residual = 0.105186, Final residual = 3.44048e-14, No Iterations 2
DILUPBiCG:  Solving for p, Initial residual = 0.0464611, Final residual = 7.36637e-10, No Iterations 13
diagonal:  Solving for rho, Initial residual = 0, Final residual = 0, No Iterations 0
time step continuity errors : sum local = 7.61549e-11, global = -3.31318e-13, cumulative = 2.64587e-13
rho max/min : 0.831217 0.710741
ExecutionTime = 0.15 s  ClockTime = 0 s

Courant Number mean: 0.0610278 max: 0.159485
Time = 0.0002

diagonal:  Solving for rho, Initial residual = 0, Final residual = 0, No Iterations 0
PIMPLE: iteration 1
DILUPBiCG:  Solving for h, Initial residual = 0.087835, Final residual = 1.07569e-14, No Iterations 2
DILUPBiCG:  Solving for p, Initial residual = 0.0498243, Final residual = 4.69969e-10, No Iterations 13
diagonal:  Solving for rho, Initial residual = 0, Final residual = 0, No Iterations 0
time step continuity errors : sum local = 4.44762e-11, global = -3.65006e-13, cumulative = -1.00419e-13
rho max/min : 0.831165 0.710797
ExecutionTime = 0.18 s  ClockTime = 0 s

Courant Number mean: 0.0697505 max: 0.159197
Time = 0.000225

diagonal:  Solving for rho, Initial residual = 0, Final residual = 0, No Iterations 0
PIMPLE: iteration 1
DILUPBiCG:  Solving for h, Initial residual = 0.0754868, Final residual = 1.02653e-14, No Iterations 2
DILUPBiCG:  Solving for p, Initial residual = 0.0542429, Final residual = 5.76042e-10, No Iterations 13
diagonal:  Solving for rho, Initial residual = 0, Final residual = 0, No Iterations 0
time step continuity errors : sum local = 4.95114e-11, global = 1.16498e-12, cumulative = 1.06456e-12
rho max/min : 0.831024 0.710949
ExecutionTime = 0.19 s  ClockTime = 0 s

Courant Number mean: 0.0784499 max: 0.158957
Time = 0.00025

diagonal:  Solving for rho, Initial residual = 0, Final residual = 0, No Iterations 0
PIMPLE: iteration 1
DILUPBiCG:  Solving for h, Initial residual = 0.0662868, Final residual = 1.8221e-16, No Iterations 2
DILUPBiCG:  Solving for p, Initial residual = 0.0596326, Final residual = 6.13048e-10, No Iterations 13
diagonal:  Solving for rho, Initial residual = 0, Final residual = 0, No Iterations 0
time step continuity errors : sum local = 4.73962e-11, global = 3.43262e-12, cumulative = 4.49718e-12
rho max/min : 0.830691 0.711316
ExecutionTime = 0.2 s  ClockTime = 0 s

End

