/*---------------------------------------------------------------------------*\
| =========                 |                                                 |
| \\      /  F ield         | OpenFOAM: The Open Source CFD Toolbox           |
|  \\    /   O peration     | Version:  2112                                  |
|   \\  /    A nd           | Website:  www.openfoam.com                      |
|    \\/     M anipulation  |                                                 |
\*---------------------------------------------------------------------------*/
Build  : _14aeaf8dab-20211220 OPENFOAM=2112 version=v2112
Arch   : "LSB;label=32;scalar=64"
Exec   : setFields
Date   : Feb 20 2022
Time   : 22:52:37
Host   : matvey-81nc
PID    : 433958
I/O    : uncollated
Case   : /data/Unicfdlab-github/hybridCentralSolvers-github/Tutorials/Covolume/Sod/Test1-3D
nProcs : 1
trapFpe: Floating point exception trapping enabled (FOAM_SIGFPE).
fileModificationChecking : Monitoring run-time modified files using timeStampMaster (fileModificationSkew 5, maxFileModificationPolls 20)
allowSystemOperations : Allowing user-supplied system call operations

// * * * * * * * * * * * * * * * * * * * * * * * * * * * * * * * * * * * * * //
Create time

Create mesh for time = 0

Reading setFieldsDict

Setting field default values
    Setting internal values of volScalarField T
    Setting internal values of volScalarField p
    Setting internal values of volVectorField U

Setting field region values
    Adding cells with centre within boxes 1((-1 -1 -1) (0.5 1 1))
    Setting internal values of volScalarField T
    Setting internal values of volScalarField p

End

