/*---------------------------------------------------------------------------*\
| =========                 |                                                 |
| \\      /  F ield         | OpenFOAM: The Open Source CFD Toolbox           |
|  \\    /   O peration     | Version:  2112                                  |
|   \\  /    A nd           | Website:  www.openfoam.com                      |
|    \\/     M anipulation  |                                                 |
\*---------------------------------------------------------------------------*/
Build  : _14aeaf8dab-20211220 OPENFOAM=2112 version=v2112
Arch   : "LSB;label=32;scalar=64"
Exec   : setFields
Date   : Feb 19 2022
Time   : 14:41:27
Host   : bl019.unicluster.ru
PID    : 16465
I/O    : uncollated
Case   : /unicluster/home/matvey.kraposhin/run/Unicfdlab/github-hybridCentralSolvers/Tutorials/Covolume/Sod/Test1
nProcs : 1
trapFpe: Floating point exception trapping enabled (FOAM_SIGFPE).
fileModificationChecking : Monitoring run-time modified files using timeStampMaster (fileModificationSkew 5, maxFileModificationPolls 20)
allowSystemOperations : Allowing user-supplied system call operations

// * * * * * * * * * * * * * * * * * * * * * * * * * * * * * * * * * * * * * //
Create time

Create mesh for time = 0

Reading setFieldsDict

Setting field default values
    Setting internal values of volScalarField T
#0  Foam::error::printStack(Foam::Ostream&) in /unicluster/bl2x220Cluster/opt/fvm/OpenFOAM/OpenFOAM-v2112/platforms/linux64GccDPInt32Opt/lib/libOpenFOAM.so
#1  Foam::sigSegv::sigHandler(int) in /unicluster/bl2x220Cluster/opt/fvm/OpenFOAM/OpenFOAM-v2112/platforms/linux64GccDPInt32Opt/lib/libOpenFOAM.so
#2  ? in /lib64/libpthread.so.0
#3  regfree in /lib64/libc.so.6
#4  Foam::regExpPosix::clear() in /unicluster/bl2x220Cluster/opt/fvm/OpenFOAM/OpenFOAM-v2112/platforms/linux64GccDPInt32Opt/lib/libOpenFOAM.so
#5  Foam::GeometricField<double, Foam::fvPatchField, Foam::volMesh>::Boundary::readField(Foam::DimensionedField<double, Foam::volMesh> const&, Foam::dictionary const&) in ~/OpenFOAM/matvey.kraposhin-v2112/platforms/linux64GccDPInt32Opt/bin/setFields
#6  Foam::GeometricField<double, Foam::fvPatchField, Foam::volMesh>::readFields(Foam::dictionary const&) in ~/OpenFOAM/matvey.kraposhin-v2112/platforms/linux64GccDPInt32Opt/bin/setFields
#7  Foam::GeometricField<double, Foam::fvPatchField, Foam::volMesh>::readFields() in ~/OpenFOAM/matvey.kraposhin-v2112/platforms/linux64GccDPInt32Opt/bin/setFields
#8  Foam::GeometricField<double, Foam::fvPatchField, Foam::volMesh>::GeometricField(Foam::IOobject const&, Foam::fvMesh const&, bool) in ~/OpenFOAM/matvey.kraposhin-v2112/platforms/linux64GccDPInt32Opt/bin/setFields
#9  ? in ~/OpenFOAM/matvey.kraposhin-v2112/platforms/linux64GccDPInt32Opt/bin/setFields
#10  ? in ~/OpenFOAM/matvey.kraposhin-v2112/platforms/linux64GccDPInt32Opt/bin/setFields
#11  ? in ~/OpenFOAM/matvey.kraposhin-v2112/platforms/linux64GccDPInt32Opt/bin/setFields
#12  __libc_start_main in /lib64/libc.so.6
#13  ? in ~/OpenFOAM/matvey.kraposhin-v2112/platforms/linux64GccDPInt32Opt/bin/setFields
