/*---------------------------------------------------------------------------*\
| =========                 |                                                 |
| \\      /  F ield         | OpenFOAM: The Open Source CFD Toolbox           |
|  \\    /   O peration     | Version:  3.0.1                                 |
|   \\  /    A nd           | Web:      www.OpenFOAM.org                      |
|    \\/     M anipulation  |                                                 |
\*---------------------------------------------------------------------------*/
Build  : 3.0.1-d8a290b55d28
Exec   : rhoPimpleFoam
Date   : Oct 13 2016
Time   : 17:14:45
Host   : "bl022.unicluster.ru"
PID    : 17074
Case   : /lustre/unicluster/home/matvey.kraposhin/run/Unicfdlab/github-hybridCentralSolvers/Tutorials-3.0.1/case-subsonic/Piso-3
nProcs : 1
sigFpe : Enabling floating point exception trapping (FOAM_SIGFPE).
fileModificationChecking : Monitoring run-time modified files using timeStampMaster
allowSystemOperations : Allowing user-supplied system call operations

// * * * * * * * * * * * * * * * * * * * * * * * * * * * * * * * * * * * * * //
Create time

Create mesh for time = 0


PIMPLE: Operating solver in PISO mode

Reading thermophysical properties

Selecting thermodynamics package 
{
    type            hePsiThermo;
    mixture         pureMixture;
    transport       const;
    thermo          hConst;
    equationOfState perfectGas;
    specie          specie;
    energy          sensibleEnthalpy;
}

Reading field U

Reading/calculating face flux field phi

Creating turbulence model

Selecting turbulence model type laminar
Creating field dpdt

Creating field kinetic energy K

No MRF models present

No finite volume options present

Courant Number mean: 0 max: 0

Starting time loop

Courant Number mean: 0 max: 0
Time = 1e-05

diagonal:  Solving for rho, Initial residual = 0, Final residual = 0, No Iterations 0
PIMPLE: iteration 1
DILUPBiCG:  Solving for h, Initial residual = 1, Final residual = 1.10363e-17, No Iterations 1
DILUPBiCG:  Solving for p, Initial residual = 0.0175261, Final residual = 2.03526e-10, No Iterations 6
diagonal:  Solving for rho, Initial residual = 0, Final residual = 0, No Iterations 0
time step continuity errors : sum local = 3.23834e-11, global = 3.94565e-17, cumulative = 3.94565e-17
rho max/min : 0.83124 0.710718
ExecutionTime = 0.06 s  ClockTime = 0 s

Courant Number mean: 0.0013978 max: 0.0461309
Time = 2e-05

diagonal:  Solving for rho, Initial residual = 0, Final residual = 0, No Iterations 0
PIMPLE: iteration 1
DILUPBiCG:  Solving for h, Initial residual = 1, Final residual = 6.26294e-13, No Iterations 1
DILUPBiCG:  Solving for p, Initial residual = 0.018632, Final residual = 3.08626e-10, No Iterations 6
diagonal:  Solving for rho, Initial residual = 0, Final residual = 0, No Iterations 0
time step continuity errors : sum local = 4.74734e-11, global = -2.7569e-12, cumulative = -2.75686e-12
rho max/min : 0.83124 0.710718
ExecutionTime = 0.06 s  ClockTime = 0 s

Courant Number mean: 0.00278815 max: 0.0619737
Time = 3e-05

diagonal:  Solving for rho, Initial residual = 0, Final residual = 0, No Iterations 0
PIMPLE: iteration 1
DILUPBiCG:  Solving for h, Initial residual = 0.384563, Final residual = 6.82555e-13, No Iterations 2
DILUPBiCG:  Solving for p, Initial residual = 0.0138677, Final residual = 2.39154e-10, No Iterations 6
diagonal:  Solving for rho, Initial residual = 0, Final residual = 0, No Iterations 0
time step continuity errors : sum local = 3.5779e-11, global = -5.11432e-13, cumulative = -3.2683e-12
rho max/min : 0.83124 0.710718
ExecutionTime = 0.06 s  ClockTime = 0 s

Courant Number mean: 0.00418157 max: 0.0654271
Time = 4e-05

diagonal:  Solving for rho, Initial residual = 0, Final residual = 0, No Iterations 0
PIMPLE: iteration 1
DILUPBiCG:  Solving for h, Initial residual = 0.217755, Final residual = 8.73768e-14, No Iterations 2
DILUPBiCG:  Solving for p, Initial residual = 0.0154078, Final residual = 2.35938e-10, No Iterations 6
diagonal:  Solving for rho, Initial residual = 0, Final residual = 0, No Iterations 0
time step continuity errors : sum local = 3.44646e-11, global = 5.05549e-13, cumulative = -2.76275e-12
rho max/min : 0.83124 0.710718
ExecutionTime = 0.07 s  ClockTime = 0 s

Courant Number mean: 0.00557522 max: 0.0647852
Time = 5e-05

diagonal:  Solving for rho, Initial residual = 0, Final residual = 0, No Iterations 0
PIMPLE: iteration 1
DILUPBiCG:  Solving for h, Initial residual = 0.167467, Final residual = 3.73861e-15, No Iterations 2
DILUPBiCG:  Solving for p, Initial residual = 0.0146107, Final residual = 2.37108e-10, No Iterations 6
diagonal:  Solving for rho, Initial residual = 0, Final residual = 0, No Iterations 0
time step continuity errors : sum local = 3.37763e-11, global = 1.51405e-12, cumulative = -1.2487e-12
rho max/min : 0.83124 0.710718
ExecutionTime = 0.09 s  ClockTime = 0 s

Courant Number mean: 0.00697237 max: 0.0643058
Time = 6e-05

diagonal:  Solving for rho, Initial residual = 0, Final residual = 0, No Iterations 0
PIMPLE: iteration 1
DILUPBiCG:  Solving for h, Initial residual = 0.130238, Final residual = 5.99722e-16, No Iterations 2
DILUPBiCG:  Solving for p, Initial residual = 0.014267, Final residual = 2.16317e-10, No Iterations 6
diagonal:  Solving for rho, Initial residual = 0, Final residual = 0, No Iterations 0
time step continuity errors : sum local = 3.00347e-11, global = 1.81177e-12, cumulative = 5.63071e-13
rho max/min : 0.83124 0.710718
ExecutionTime = 0.1 s  ClockTime = 0 s

Courant Number mean: 0.0083705 max: 0.0642522
Time = 7e-05

diagonal:  Solving for rho, Initial residual = 0, Final residual = 0, No Iterations 0
PIMPLE: iteration 1
DILUPBiCG:  Solving for h, Initial residual = 0.106108, Final residual = 2.62922e-16, No Iterations 2
DILUPBiCG:  Solving for p, Initial residual = 0.0146244, Final residual = 2.14202e-10, No Iterations 6
diagonal:  Solving for rho, Initial residual = 0, Final residual = 0, No Iterations 0
time step continuity errors : sum local = 2.89698e-11, global = 3.1365e-12, cumulative = 3.69957e-12
rho max/min : 0.83124 0.710718
ExecutionTime = 0.1 s  ClockTime = 0 s

Courant Number mean: 0.00976715 max: 0.0640141
Time = 8e-05

diagonal:  Solving for rho, Initial residual = 0, Final residual = 0, No Iterations 0
PIMPLE: iteration 1
DILUPBiCG:  Solving for h, Initial residual = 0.0894753, Final residual = 9.57614e-17, No Iterations 2
DILUPBiCG:  Solving for p, Initial residual = 0.0145127, Final residual = 2.02693e-10, No Iterations 6
diagonal:  Solving for rho, Initial residual = 0, Final residual = 0, No Iterations 0
time step continuity errors : sum local = 2.67068e-11, global = 3.46304e-12, cumulative = 7.16261e-12
rho max/min : 0.83124 0.710718
ExecutionTime = 0.11 s  ClockTime = 0 s

Courant Number mean: 0.0111633 max: 0.0637617
Time = 9e-05

diagonal:  Solving for rho, Initial residual = 0, Final residual = 0, No Iterations 0
PIMPLE: iteration 1
DILUPBiCG:  Solving for h, Initial residual = 0.0771002, Final residual = 4.20814e-17, No Iterations 2
DILUPBiCG:  Solving for p, Initial residual = 0.0148216, Final residual = 1.98142e-10, No Iterations 6
diagonal:  Solving for rho, Initial residual = 0, Final residual = 0, No Iterations 0
time step continuity errors : sum local = 2.54228e-11, global = 5.90097e-12, cumulative = 1.30636e-11
rho max/min : 0.83124 0.710718
ExecutionTime = 0.11 s  ClockTime = 0 s

Courant Number mean: 0.0125584 max: 0.0637832
Time = 0.0001

diagonal:  Solving for rho, Initial residual = 0, Final residual = 0, No Iterations 0
PIMPLE: iteration 1
DILUPBiCG:  Solving for h, Initial residual = 0.0679423, Final residual = 8.57871e-10, No Iterations 1
DILUPBiCG:  Solving for p, Initial residual = 0.0150266, Final residual = 1.92769e-10, No Iterations 6
diagonal:  Solving for rho, Initial residual = 0, Final residual = 0, No Iterations 0
time step continuity errors : sum local = 2.40646e-11, global = 3.98853e-12, cumulative = 1.70521e-11
rho max/min : 0.83124 0.710718
ExecutionTime = 0.12 s  ClockTime = 0 s

Courant Number mean: 0.0139555 max: 0.0637717
Time = 0.00011

diagonal:  Solving for rho, Initial residual = 0, Final residual = 0, No Iterations 0
PIMPLE: iteration 1
DILUPBiCG:  Solving for h, Initial residual = 0.0607292, Final residual = 6.27389e-10, No Iterations 1
DILUPBiCG:  Solving for p, Initial residual = 0.0152654, Final residual = 1.89966e-10, No Iterations 6
diagonal:  Solving for rho, Initial residual = 0, Final residual = 0, No Iterations 0
time step continuity errors : sum local = 2.30557e-11, global = 4.63886e-12, cumulative = 2.1691e-11
rho max/min : 0.83124 0.710718
ExecutionTime = 0.13 s  ClockTime = 0 s

Courant Number mean: 0.0153522 max: 0.0637212
Time = 0.00012

diagonal:  Solving for rho, Initial residual = 0, Final residual = 0, No Iterations 0
PIMPLE: iteration 1
DILUPBiCG:  Solving for h, Initial residual = 0.0546724, Final residual = 4.83915e-10, No Iterations 1
DILUPBiCG:  Solving for p, Initial residual = 0.0155749, Final residual = 1.90739e-10, No Iterations 6
diagonal:  Solving for rho, Initial residual = 0, Final residual = 0, No Iterations 0
time step continuity errors : sum local = 2.2492e-11, global = 5.65058e-12, cumulative = 2.73415e-11
rho max/min : 0.83124 0.710718
ExecutionTime = 0.13 s  ClockTime = 0 s

Courant Number mean: 0.0167475 max: 0.0636529
Time = 0.00013

diagonal:  Solving for rho, Initial residual = 0, Final residual = 0, No Iterations 0
PIMPLE: iteration 1
DILUPBiCG:  Solving for h, Initial residual = 0.0494775, Final residual = 3.89896e-10, No Iterations 1
DILUPBiCG:  Solving for p, Initial residual = 0.0160153, Final residual = 1.91781e-10, No Iterations 6
diagonal:  Solving for rho, Initial residual = 0, Final residual = 0, No Iterations 0
time step continuity errors : sum local = 2.19596e-11, global = 4.67116e-12, cumulative = 3.20127e-11
rho max/min : 0.83124 0.710718
ExecutionTime = 0.13 s  ClockTime = 0 s

Courant Number mean: 0.0181439 max: 0.0635772
Time = 0.00014

diagonal:  Solving for rho, Initial residual = 0, Final residual = 0, No Iterations 0
PIMPLE: iteration 1
DILUPBiCG:  Solving for h, Initial residual = 0.0452309, Final residual = 3.29936e-10, No Iterations 1
DILUPBiCG:  Solving for p, Initial residual = 0.0164255, Final residual = 1.92486e-10, No Iterations 6
diagonal:  Solving for rho, Initial residual = 0, Final residual = 0, No Iterations 0
time step continuity errors : sum local = 2.13838e-11, global = 4.30417e-12, cumulative = 3.63169e-11
rho max/min : 0.83124 0.710718
ExecutionTime = 0.14 s  ClockTime = 0 s

Courant Number mean: 0.0195411 max: 0.0635008
Time = 0.00015

diagonal:  Solving for rho, Initial residual = 0, Final residual = 0, No Iterations 0
PIMPLE: iteration 1
DILUPBiCG:  Solving for h, Initial residual = 0.0416391, Final residual = 2.81535e-10, No Iterations 1
DILUPBiCG:  Solving for p, Initial residual = 0.0168652, Final residual = 1.96286e-10, No Iterations 6
diagonal:  Solving for rho, Initial residual = 0, Final residual = 0, No Iterations 0
time step continuity errors : sum local = 2.11361e-11, global = 4.25092e-12, cumulative = 4.05678e-11
rho max/min : 0.83124 0.710718
ExecutionTime = 0.16 s  ClockTime = 1 s

Courant Number mean: 0.0209383 max: 0.0634266
Time = 0.00016

diagonal:  Solving for rho, Initial residual = 0, Final residual = 0, No Iterations 0
PIMPLE: iteration 1
DILUPBiCG:  Solving for h, Initial residual = 0.0385668, Final residual = 2.43861e-10, No Iterations 1
DILUPBiCG:  Solving for p, Initial residual = 0.0173587, Final residual = 2.02238e-10, No Iterations 6
diagonal:  Solving for rho, Initial residual = 0, Final residual = 0, No Iterations 0
time step continuity errors : sum local = 2.10866e-11, global = 5.07983e-12, cumulative = 4.56476e-11
rho max/min : 0.83124 0.710718
ExecutionTime = 0.17 s  ClockTime = 1 s

Courant Number mean: 0.0223351 max: 0.063353
Time = 0.00017

diagonal:  Solving for rho, Initial residual = 0, Final residual = 0, No Iterations 0
PIMPLE: iteration 1
DILUPBiCG:  Solving for h, Initial residual = 0.0359282, Final residual = 2.07805e-10, No Iterations 1
DILUPBiCG:  Solving for p, Initial residual = 0.0179169, Final residual = 2.04664e-10, No Iterations 6
diagonal:  Solving for rho, Initial residual = 0, Final residual = 0, No Iterations 0
time step continuity errors : sum local = 2.06404e-11, global = 4.51795e-12, cumulative = 5.01656e-11
rho max/min : 0.83124 0.710718
ExecutionTime = 0.17 s  ClockTime = 1 s

Courant Number mean: 0.0237322 max: 0.0633148
Time = 0.00018

diagonal:  Solving for rho, Initial residual = 0, Final residual = 0, No Iterations 0
PIMPLE: iteration 1
DILUPBiCG:  Solving for h, Initial residual = 0.0336766, Final residual = 1.74992e-10, No Iterations 1
DILUPBiCG:  Solving for p, Initial residual = 0.0184845, Final residual = 2.04444e-10, No Iterations 6
diagonal:  Solving for rho, Initial residual = 0, Final residual = 0, No Iterations 0
time step continuity errors : sum local = 1.992e-11, global = 3.89091e-12, cumulative = 5.40565e-11
rho max/min : 0.83124 0.710718
ExecutionTime = 0.18 s  ClockTime = 1 s

Courant Number mean: 0.0251296 max: 0.0633034
Time = 0.00019

diagonal:  Solving for rho, Initial residual = 0, Final residual = 0, No Iterations 0
PIMPLE: iteration 1
DILUPBiCG:  Solving for h, Initial residual = 0.031699, Final residual = 1.46448e-10, No Iterations 1
DILUPBiCG:  Solving for p, Initial residual = 0.0190968, Final residual = 2.07847e-10, No Iterations 6
diagonal:  Solving for rho, Initial residual = 0, Final residual = 0, No Iterations 0
time step continuity errors : sum local = 1.95435e-11, global = 4.33078e-12, cumulative = 5.83873e-11
rho max/min : 0.83124 0.710718
ExecutionTime = 0.18 s  ClockTime = 1 s

Courant Number mean: 0.0265257 max: 0.0632836
Time = 0.0002

diagonal:  Solving for rho, Initial residual = 0, Final residual = 0, No Iterations 0
PIMPLE: iteration 1
DILUPBiCG:  Solving for h, Initial residual = 0.0299431, Final residual = 1.2136e-10, No Iterations 1
DILUPBiCG:  Solving for p, Initial residual = 0.0197664, Final residual = 2.10262e-10, No Iterations 6
diagonal:  Solving for rho, Initial residual = 0, Final residual = 0, No Iterations 0
time step continuity errors : sum local = 1.90558e-11, global = 4.22282e-12, cumulative = 6.26101e-11
rho max/min : 0.83124 0.710718
ExecutionTime = 0.2 s  ClockTime = 1 s

Courant Number mean: 0.027923 max: 0.0632617
Time = 0.00021

diagonal:  Solving for rho, Initial residual = 0, Final residual = 0, No Iterations 0
PIMPLE: iteration 1
DILUPBiCG:  Solving for h, Initial residual = 0.028364, Final residual = 9.96849e-11, No Iterations 1
DILUPBiCG:  Solving for p, Initial residual = 0.0205078, Final residual = 2.15061e-10, No Iterations 6
diagonal:  Solving for rho, Initial residual = 0, Final residual = 0, No Iterations 0
time step continuity errors : sum local = 1.87593e-11, global = 4.70701e-12, cumulative = 6.73171e-11
rho max/min : 0.83124 0.710718
ExecutionTime = 0.21 s  ClockTime = 1 s

Courant Number mean: 0.0293203 max: 0.0632387
Time = 0.00022

diagonal:  Solving for rho, Initial residual = 0, Final residual = 0, No Iterations 0
PIMPLE: iteration 1
DILUPBiCG:  Solving for h, Initial residual = 0.0269535, Final residual = 8.17147e-11, No Iterations 1
DILUPBiCG:  Solving for p, Initial residual = 0.0213094, Final residual = 2.2239e-10, No Iterations 6
diagonal:  Solving for rho, Initial residual = 0, Final residual = 0, No Iterations 0
time step continuity errors : sum local = 1.86421e-11, global = 4.12802e-12, cumulative = 7.14451e-11
rho max/min : 0.831239 0.710718
ExecutionTime = 0.21 s  ClockTime = 1 s

Courant Number mean: 0.0307176 max: 0.0632152
Time = 0.00023

diagonal:  Solving for rho, Initial residual = 0, Final residual = 0, No Iterations 0
PIMPLE: iteration 1
DILUPBiCG:  Solving for h, Initial residual = 0.0256868, Final residual = 6.78078e-11, No Iterations 1
DILUPBiCG:  Solving for p, Initial residual = 0.0221746, Final residual = 2.27141e-10, No Iterations 6
diagonal:  Solving for rho, Initial residual = 0, Final residual = 0, No Iterations 0
time step continuity errors : sum local = 1.82673e-11, global = 4.16762e-12, cumulative = 7.56127e-11
rho max/min : 0.831239 0.710719
ExecutionTime = 0.22 s  ClockTime = 1 s

Courant Number mean: 0.0321156 max: 0.063192
Time = 0.00024

diagonal:  Solving for rho, Initial residual = 0, Final residual = 0, No Iterations 0
PIMPLE: iteration 1
DILUPBiCG:  Solving for h, Initial residual = 0.0245339, Final residual = 5.90823e-11, No Iterations 1
DILUPBiCG:  Solving for p, Initial residual = 0.0231325, Final residual = 2.33418e-10, No Iterations 6
diagonal:  Solving for rho, Initial residual = 0, Final residual = 0, No Iterations 0
time step continuity errors : sum local = 1.79777e-11, global = 4.2467e-12, cumulative = 7.98594e-11
rho max/min : 0.831237 0.710721
ExecutionTime = 0.22 s  ClockTime = 1 s

Courant Number mean: 0.0335123 max: 0.0631694
Time = 0.00025

diagonal:  Solving for rho, Initial residual = 0, Final residual = 0, No Iterations 0
PIMPLE: iteration 1
DILUPBiCG:  Solving for h, Initial residual = 0.0234822, Final residual = 5.30975e-11, No Iterations 1
DILUPBiCG:  Solving for p, Initial residual = 0.0241676, Final residual = 2.4092e-10, No Iterations 6
diagonal:  Solving for rho, Initial residual = 0, Final residual = 0, No Iterations 0
time step continuity errors : sum local = 1.77353e-11, global = 4.59329e-12, cumulative = 8.44527e-11
rho max/min : 0.831233 0.710725
ExecutionTime = 0.24 s  ClockTime = 1 s

End

