/*---------------------------------------------------------------------------*\
| =========                 |                                                 |
| \\      /  F ield         | OpenFOAM: The Open Source CFD Toolbox           |
|  \\    /   O peration     | Version:  3.0.1                                 |
|   \\  /    A nd           | Web:      www.OpenFOAM.org                      |
|    \\/     M anipulation  |                                                 |
\*---------------------------------------------------------------------------*/
Build  : 3.0.1-d8a290b55d28
Exec   : rhoPimpleFoam
Date   : Oct 13 2016
Time   : 17:13:05
Host   : "bl022.unicluster.ru"
PID    : 16623
Case   : /lustre/unicluster/home/matvey.kraposhin/run/Unicfdlab/github-hybridCentralSolvers/Tutorials-3.0.1/case-subsonic/Piso-1
nProcs : 1
sigFpe : Enabling floating point exception trapping (FOAM_SIGFPE).
fileModificationChecking : Monitoring run-time modified files using timeStampMaster
allowSystemOperations : Allowing user-supplied system call operations

// * * * * * * * * * * * * * * * * * * * * * * * * * * * * * * * * * * * * * //
Create time

Create mesh for time = 0


PIMPLE: Operating solver in PISO mode

Reading thermophysical properties

Selecting thermodynamics package 
{
    type            hePsiThermo;
    mixture         pureMixture;
    transport       const;
    thermo          hConst;
    equationOfState perfectGas;
    specie          specie;
    energy          sensibleEnthalpy;
}

Reading field U

Reading/calculating face flux field phi

Creating turbulence model

Selecting turbulence model type laminar
Creating field dpdt

Creating field kinetic energy K

No MRF models present

No finite volume options present

Courant Number mean: 0 max: 0

Starting time loop

Courant Number mean: 0 max: 0
Time = 1e-07

diagonal:  Solving for rho, Initial residual = 0, Final residual = 0, No Iterations 0
PIMPLE: iteration 1
DILUPBiCG:  Solving for h, Initial residual = 1, Final residual = 6.21587e-18, No Iterations 1
DILUPBiCG:  Solving for p, Initial residual = 1.78387e-06, Final residual = 3.95912e-15, No Iterations 1
diagonal:  Solving for rho, Initial residual = 0, Final residual = 0, No Iterations 0
time step continuity errors : sum local = 8.21242e-16, global = -5.42887e-17, cumulative = -5.42887e-17
rho max/min : 0.83124 0.710718
ExecutionTime = 0.05 s  ClockTime = 0 s

Courant Number mean: 1.40287e-07 max: 7.56184e-06
Time = 2e-07

diagonal:  Solving for rho, Initial residual = 0, Final residual = 0, No Iterations 0
PIMPLE: iteration 1
DILUPBiCG:  Solving for h, Initial residual = 1, Final residual = 2.92548e-16, No Iterations 1
DILUPBiCG:  Solving for p, Initial residual = 3.74152e-06, Final residual = 9.00306e-15, No Iterations 1
diagonal:  Solving for rho, Initial residual = 0, Final residual = 0, No Iterations 0
time step continuity errors : sum local = 1.50367e-15, global = -8.0353e-17, cumulative = -1.34642e-16
rho max/min : 0.83124 0.710718
ExecutionTime = 0.06 s  ClockTime = 0 s

Courant Number mean: 3.24321e-07 max: 1.55899e-05
Time = 3e-07

diagonal:  Solving for rho, Initial residual = 0, Final residual = 0, No Iterations 0
PIMPLE: iteration 1
DILUPBiCG:  Solving for h, Initial residual = 0.493484, Final residual = 1.36856e-16, No Iterations 1
DILUPBiCG:  Solving for p, Initial residual = 5.64828e-06, Final residual = 1.43568e-14, No Iterations 1
diagonal:  Solving for rho, Initial residual = 0, Final residual = 0, No Iterations 0
time step continuity errors : sum local = 2.36148e-15, global = -2.21907e-16, cumulative = -3.56548e-16
rho max/min : 0.83124 0.710718
ExecutionTime = 0.06 s  ClockTime = 0 s

Courant Number mean: 5.00347e-07 max: 2.3188e-05
Time = 4e-07

diagonal:  Solving for rho, Initial residual = 0, Final residual = 0, No Iterations 0
PIMPLE: iteration 1
DILUPBiCG:  Solving for h, Initial residual = 0.322104, Final residual = 1.47075e-16, No Iterations 1
DILUPBiCG:  Solving for p, Initial residual = 7.49647e-06, Final residual = 1.96718e-14, No Iterations 1
diagonal:  Solving for rho, Initial residual = 0, Final residual = 0, No Iterations 0
time step continuity errors : sum local = 3.17481e-15, global = -3.40564e-16, cumulative = -6.97112e-16
rho max/min : 0.83124 0.710718
ExecutionTime = 0.06 s  ClockTime = 0 s

Courant Number mean: 6.38126e-07 max: 2.96605e-05
Time = 5e-07

diagonal:  Solving for rho, Initial residual = 0, Final residual = 0, No Iterations 0
PIMPLE: iteration 1
DILUPBiCG:  Solving for h, Initial residual = 0.237718, Final residual = 1.63582e-16, No Iterations 1
DILUPBiCG:  Solving for p, Initial residual = 9.30413e-06, Final residual = 2.52265e-14, No Iterations 1
diagonal:  Solving for rho, Initial residual = 0, Final residual = 0, No Iterations 0
time step continuity errors : sum local = 4.02614e-15, global = -5.39287e-16, cumulative = -1.2364e-15
rho max/min : 0.83124 0.710718
ExecutionTime = 0.07 s  ClockTime = 0 s

Courant Number mean: 8.01892e-07 max: 3.67813e-05
Time = 6e-07

diagonal:  Solving for rho, Initial residual = 0, Final residual = 0, No Iterations 0
PIMPLE: iteration 1
DILUPBiCG:  Solving for h, Initial residual = 0.188079, Final residual = 8.90787e-17, No Iterations 1
DILUPBiCG:  Solving for p, Initial residual = 1.10855e-05, Final residual = 3.10593e-14, No Iterations 1
diagonal:  Solving for rho, Initial residual = 0, Final residual = 0, No Iterations 0
time step continuity errors : sum local = 4.93566e-15, global = -7.58457e-16, cumulative = -1.99486e-15
rho max/min : 0.83124 0.710718
ExecutionTime = 0.07 s  ClockTime = 0 s

Courant Number mean: 9.54415e-07 max: 4.35656e-05
Time = 7e-07

diagonal:  Solving for rho, Initial residual = 0, Final residual = 0, No Iterations 0
PIMPLE: iteration 1
DILUPBiCG:  Solving for h, Initial residual = 0.155553, Final residual = 6.71218e-17, No Iterations 1
DILUPBiCG:  Solving for p, Initial residual = 1.28492e-05, Final residual = 3.71701e-14, No Iterations 1
diagonal:  Solving for rho, Initial residual = 0, Final residual = 0, No Iterations 0
time step continuity errors : sum local = 5.89399e-15, global = -1.02904e-15, cumulative = -3.02389e-15
rho max/min : 0.83124 0.710718
ExecutionTime = 0.07 s  ClockTime = 0 s

Courant Number mean: 1.11091e-06 max: 5.04331e-05
Time = 8e-07

diagonal:  Solving for rho, Initial residual = 0, Final residual = 0, No Iterations 0
PIMPLE: iteration 1
DILUPBiCG:  Solving for h, Initial residual = 0.132639, Final residual = 5.61557e-17, No Iterations 1
DILUPBiCG:  Solving for p, Initial residual = 1.46002e-05, Final residual = 4.3536e-14, No Iterations 1
diagonal:  Solving for rho, Initial residual = 0, Final residual = 0, No Iterations 0
time step continuity errors : sum local = 6.87176e-15, global = -1.31877e-15, cumulative = -4.34266e-15
rho max/min : 0.83124 0.710718
ExecutionTime = 0.07 s  ClockTime = 0 s

Courant Number mean: 1.26713e-06 max: 5.7274e-05
Time = 9e-07

diagonal:  Solving for rho, Initial residual = 0, Final residual = 0, No Iterations 0
PIMPLE: iteration 1
DILUPBiCG:  Solving for h, Initial residual = 0.115635, Final residual = 2.28886e-17, No Iterations 1
DILUPBiCG:  Solving for p, Initial residual = 1.63413e-05, Final residual = 5.01689e-14, No Iterations 1
diagonal:  Solving for rho, Initial residual = 0, Final residual = 0, No Iterations 0
time step continuity errors : sum local = 7.9211e-15, global = -1.68468e-15, cumulative = -6.02734e-15
rho max/min : 0.83124 0.710718
ExecutionTime = 0.08 s  ClockTime = 0 s

Courant Number mean: 1.42365e-06 max: 6.41067e-05
Time = 1e-06

diagonal:  Solving for rho, Initial residual = 0, Final residual = 0, No Iterations 0
PIMPLE: iteration 1
DILUPBiCG:  Solving for h, Initial residual = 0.102517, Final residual = 1.82949e-17, No Iterations 1
DILUPBiCG:  Solving for p, Initial residual = 1.80743e-05, Final residual = 5.70714e-14, No Iterations 1
diagonal:  Solving for rho, Initial residual = 0, Final residual = 0, No Iterations 0
time step continuity errors : sum local = 8.98211e-15, global = -2.06138e-15, cumulative = -8.08872e-15
rho max/min : 0.83124 0.710718
ExecutionTime = 0.08 s  ClockTime = 0 s

Courant Number mean: 1.58042e-06 max: 7.09309e-05
Time = 1.1e-06

diagonal:  Solving for rho, Initial residual = 0, Final residual = 0, No Iterations 0
PIMPLE: iteration 1
DILUPBiCG:  Solving for h, Initial residual = 0.0920867, Final residual = 6.68452e-17, No Iterations 1
DILUPBiCG:  Solving for p, Initial residual = 1.98002e-05, Final residual = 6.42446e-14, No Iterations 1
diagonal:  Solving for rho, Initial residual = 0, Final residual = 0, No Iterations 0
time step continuity errors : sum local = 1.0116e-14, global = -2.48187e-15, cumulative = -1.05706e-14
rho max/min : 0.83124 0.710718
ExecutionTime = 0.08 s  ClockTime = 0 s

Courant Number mean: 1.73739e-06 max: 7.77464e-05
Time = 1.2e-06

diagonal:  Solving for rho, Initial residual = 0, Final residual = 0, No Iterations 0
PIMPLE: iteration 1
DILUPBiCG:  Solving for h, Initial residual = 0.0835929, Final residual = 2.13389e-17, No Iterations 1
DILUPBiCG:  Solving for p, Initial residual = 2.15194e-05, Final residual = 7.16884e-14, No Iterations 1
diagonal:  Solving for rho, Initial residual = 0, Final residual = 0, No Iterations 0
time step continuity errors : sum local = 1.12674e-14, global = -2.92741e-15, cumulative = -1.3498e-14
rho max/min : 0.83124 0.710718
ExecutionTime = 0.08 s  ClockTime = 0 s

Courant Number mean: 1.89454e-06 max: 8.45525e-05
Time = 1.3e-06

diagonal:  Solving for rho, Initial residual = 0, Final residual = 0, No Iterations 0
PIMPLE: iteration 1
DILUPBiCG:  Solving for h, Initial residual = 0.0765401, Final residual = 4.87656e-17, No Iterations 1
DILUPBiCG:  Solving for p, Initial residual = 2.32323e-05, Final residual = 7.94014e-14, No Iterations 1
diagonal:  Solving for rho, Initial residual = 0, Final residual = 0, No Iterations 0
time step continuity errors : sum local = 1.24826e-14, global = -3.43588e-15, cumulative = -1.69339e-14
rho max/min : 0.83124 0.710718
ExecutionTime = 0.09 s  ClockTime = 0 s

Courant Number mean: 2.05182e-06 max: 9.13483e-05
Time = 1.4e-06

diagonal:  Solving for rho, Initial residual = 0, Final residual = 0, No Iterations 0
PIMPLE: iteration 1
DILUPBiCG:  Solving for h, Initial residual = 0.0705885, Final residual = 1.2266e-17, No Iterations 1
DILUPBiCG:  Solving for p, Initial residual = 2.49392e-05, Final residual = 8.73816e-14, No Iterations 1
diagonal:  Solving for rho, Initial residual = 0, Final residual = 0, No Iterations 0
time step continuity errors : sum local = 1.37239e-14, global = -3.94766e-15, cumulative = -2.08815e-14
rho max/min : 0.83124 0.710718
ExecutionTime = 0.09 s  ClockTime = 0 s

Courant Number mean: 2.20922e-06 max: 9.81326e-05
Time = 1.5e-06

diagonal:  Solving for rho, Initial residual = 0, Final residual = 0, No Iterations 0
PIMPLE: iteration 1
DILUPBiCG:  Solving for h, Initial residual = 0.0654977, Final residual = 1.06046e-17, No Iterations 1
DILUPBiCG:  Solving for p, Initial residual = 2.66399e-05, Final residual = 9.56263e-14, No Iterations 1
diagonal:  Solving for rho, Initial residual = 0, Final residual = 0, No Iterations 0
time step continuity errors : sum local = 1.5009e-14, global = -4.52252e-15, cumulative = -2.54041e-14
rho max/min : 0.83124 0.710718
ExecutionTime = 0.09 s  ClockTime = 0 s

Courant Number mean: 2.3667e-06 max: 0.000104904
Time = 1.6e-06

diagonal:  Solving for rho, Initial residual = 0, Final residual = 0, No Iterations 0
PIMPLE: iteration 1
DILUPBiCG:  Solving for h, Initial residual = 0.0610926, Final residual = 4.35315e-18, No Iterations 1
DILUPBiCG:  Solving for p, Initial residual = 2.83345e-05, Final residual = 1.04132e-13, No Iterations 1
diagonal:  Solving for rho, Initial residual = 0, Final residual = 0, No Iterations 0
time step continuity errors : sum local = 1.63261e-14, global = -5.09622e-15, cumulative = -3.05003e-14
rho max/min : 0.83124 0.710718
ExecutionTime = 0.1 s  ClockTime = 0 s

Courant Number mean: 2.52423e-06 max: 0.000111662
Time = 1.7e-06

diagonal:  Solving for rho, Initial residual = 0, Final residual = 0, No Iterations 0
PIMPLE: iteration 1
DILUPBiCG:  Solving for h, Initial residual = 0.0572425, Final residual = 3.1477e-17, No Iterations 1
DILUPBiCG:  Solving for p, Initial residual = 3.00229e-05, Final residual = 1.12896e-13, No Iterations 1
diagonal:  Solving for rho, Initial residual = 0, Final residual = 0, No Iterations 0
time step continuity errors : sum local = 1.77207e-14, global = -5.75733e-15, cumulative = -3.62576e-14
rho max/min : 0.83124 0.710718
ExecutionTime = 0.1 s  ClockTime = 0 s

Courant Number mean: 2.6818e-06 max: 0.000118405
Time = 1.8e-06

diagonal:  Solving for rho, Initial residual = 0, Final residual = 0, No Iterations 0
PIMPLE: iteration 1
DILUPBiCG:  Solving for h, Initial residual = 0.0538481, Final residual = 1.15272e-17, No Iterations 1
DILUPBiCG:  Solving for p, Initial residual = 3.17049e-05, Final residual = 1.21914e-13, No Iterations 1
diagonal:  Solving for rho, Initial residual = 0, Final residual = 0, No Iterations 0
time step continuity errors : sum local = 1.91158e-14, global = -6.41024e-15, cumulative = -4.26679e-14
rho max/min : 0.83124 0.710718
ExecutionTime = 0.1 s  ClockTime = 0 s

Courant Number mean: 2.83937e-06 max: 0.000125132
Time = 1.9e-06

diagonal:  Solving for rho, Initial residual = 0, Final residual = 0, No Iterations 0
PIMPLE: iteration 1
DILUPBiCG:  Solving for h, Initial residual = 0.0508326, Final residual = 9.06461e-18, No Iterations 1
DILUPBiCG:  Solving for p, Initial residual = 3.33804e-05, Final residual = 1.31181e-13, No Iterations 1
diagonal:  Solving for rho, Initial residual = 0, Final residual = 0, No Iterations 0
time step continuity errors : sum local = 2.05613e-14, global = -7.10605e-15, cumulative = -4.97739e-14
rho max/min : 0.83124 0.710718
ExecutionTime = 0.1 s  ClockTime = 0 s

Courant Number mean: 2.99693e-06 max: 0.000131841
Time = 2e-06

diagonal:  Solving for rho, Initial residual = 0, Final residual = 0, No Iterations 0
PIMPLE: iteration 1
DILUPBiCG:  Solving for h, Initial residual = 0.0481354, Final residual = 3.93629e-18, No Iterations 1
DILUPBiCG:  Solving for p, Initial residual = 3.50492e-05, Final residual = 1.40693e-13, No Iterations 1
diagonal:  Solving for rho, Initial residual = 0, Final residual = 0, No Iterations 0
time step continuity errors : sum local = 2.20405e-14, global = -7.81195e-15, cumulative = -5.75859e-14
rho max/min : 0.83124 0.710718
ExecutionTime = 0.11 s  ClockTime = 0 s

Courant Number mean: 3.15445e-06 max: 0.000138531
Time = 2.1e-06

diagonal:  Solving for rho, Initial residual = 0, Final residual = 0, No Iterations 0
PIMPLE: iteration 1
DILUPBiCG:  Solving for h, Initial residual = 0.0457083, Final residual = 6.35984e-18, No Iterations 1
DILUPBiCG:  Solving for p, Initial residual = 3.67111e-05, Final residual = 1.50496e-13, No Iterations 1
diagonal:  Solving for rho, Initial residual = 0, Final residual = 0, No Iterations 0
time step continuity errors : sum local = 2.35754e-14, global = -8.57214e-15, cumulative = -6.6158e-14
rho max/min : 0.83124 0.710718
ExecutionTime = 0.11 s  ClockTime = 0 s

Courant Number mean: 3.31192e-06 max: 0.000145201
Time = 2.2e-06

diagonal:  Solving for rho, Initial residual = 0, Final residual = 0, No Iterations 0
PIMPLE: iteration 1
DILUPBiCG:  Solving for h, Initial residual = 0.0435125, Final residual = 8.55356e-18, No Iterations 1
DILUPBiCG:  Solving for p, Initial residual = 3.83658e-05, Final residual = 1.60624e-13, No Iterations 1
diagonal:  Solving for rho, Initial residual = 0, Final residual = 0, No Iterations 0
time step continuity errors : sum local = 2.51369e-14, global = -9.34226e-15, cumulative = -7.55003e-14
rho max/min : 0.83124 0.710718
ExecutionTime = 0.11 s  ClockTime = 0 s

Courant Number mean: 3.46932e-06 max: 0.00015185
Time = 2.3e-06

diagonal:  Solving for rho, Initial residual = 0, Final residual = 0, No Iterations 0
PIMPLE: iteration 1
DILUPBiCG:  Solving for h, Initial residual = 0.041516, Final residual = 2.37612e-17, No Iterations 1
DILUPBiCG:  Solving for p, Initial residual = 4.00133e-05, Final residual = 1.70995e-13, No Iterations 1
diagonal:  Solving for rho, Initial residual = 0, Final residual = 0, No Iterations 0
time step continuity errors : sum local = 2.67647e-14, global = -1.0172e-14, cumulative = -8.56723e-14
rho max/min : 0.83124 0.710718
ExecutionTime = 0.12 s  ClockTime = 0 s

Courant Number mean: 3.62663e-06 max: 0.000158477
Time = 2.4e-06

diagonal:  Solving for rho, Initial residual = 0, Final residual = 0, No Iterations 0
PIMPLE: iteration 1
DILUPBiCG:  Solving for h, Initial residual = 0.0396913, Final residual = 4.45532e-18, No Iterations 1
DILUPBiCG:  Solving for p, Initial residual = 4.16532e-05, Final residual = 1.81602e-13, No Iterations 1
diagonal:  Solving for rho, Initial residual = 0, Final residual = 0, No Iterations 0
time step continuity errors : sum local = 2.84176e-14, global = -1.1004e-14, cumulative = -9.66763e-14
rho max/min : 0.83124 0.710718
ExecutionTime = 0.12 s  ClockTime = 0 s

Courant Number mean: 3.78384e-06 max: 0.00016508
Time = 2.5e-06

diagonal:  Solving for rho, Initial residual = 0, Final residual = 0, No Iterations 0
PIMPLE: iteration 1
DILUPBiCG:  Solving for h, Initial residual = 0.0380174, Final residual = 2.51457e-17, No Iterations 1
DILUPBiCG:  Solving for p, Initial residual = 4.32853e-05, Final residual = 1.92439e-13, No Iterations 1
diagonal:  Solving for rho, Initial residual = 0, Final residual = 0, No Iterations 0
time step continuity errors : sum local = 3.01105e-14, global = -1.18706e-14, cumulative = -1.08547e-13
rho max/min : 0.83124 0.710718
ExecutionTime = 0.12 s  ClockTime = 0 s

Courant Number mean: 3.94093e-06 max: 0.000171658
Time = 2.6e-06

diagonal:  Solving for rho, Initial residual = 0, Final residual = 0, No Iterations 0
PIMPLE: iteration 1
DILUPBiCG:  Solving for h, Initial residual = 0.0364753, Final residual = 7.09207e-18, No Iterations 1
DILUPBiCG:  Solving for p, Initial residual = 4.49094e-05, Final residual = 2.035e-13, No Iterations 1
diagonal:  Solving for rho, Initial residual = 0, Final residual = 0, No Iterations 0
time step continuity errors : sum local = 3.18412e-14, global = -1.27659e-14, cumulative = -1.21313e-13
rho max/min : 0.83124 0.710718
ExecutionTime = 0.12 s  ClockTime = 0 s

Courant Number mean: 4.09789e-06 max: 0.000178211
Time = 2.7e-06

diagonal:  Solving for rho, Initial residual = 0, Final residual = 0, No Iterations 0
PIMPLE: iteration 1
DILUPBiCG:  Solving for h, Initial residual = 0.0350505, Final residual = 8.85033e-18, No Iterations 1
DILUPBiCG:  Solving for p, Initial residual = 4.65253e-05, Final residual = 2.14779e-13, No Iterations 1
diagonal:  Solving for rho, Initial residual = 0, Final residual = 0, No Iterations 0
time step continuity errors : sum local = 3.35894e-14, global = -1.36999e-14, cumulative = -1.35013e-13
rho max/min : 0.83124 0.710718
ExecutionTime = 0.13 s  ClockTime = 0 s

Courant Number mean: 4.25471e-06 max: 0.000184737
Time = 2.8e-06

diagonal:  Solving for rho, Initial residual = 0, Final residual = 0, No Iterations 0
PIMPLE: iteration 1
DILUPBiCG:  Solving for h, Initial residual = 0.0337304, Final residual = 8.93627e-18, No Iterations 1
DILUPBiCG:  Solving for p, Initial residual = 4.81327e-05, Final residual = 2.26268e-13, No Iterations 1
diagonal:  Solving for rho, Initial residual = 0, Final residual = 0, No Iterations 0
time step continuity errors : sum local = 3.53733e-14, global = -1.46457e-14, cumulative = -1.49658e-13
rho max/min : 0.83124 0.710718
ExecutionTime = 0.13 s  ClockTime = 0 s

Courant Number mean: 4.41136e-06 max: 0.000191234
Time = 2.9e-06

diagonal:  Solving for rho, Initial residual = 0, Final residual = 0, No Iterations 0
PIMPLE: iteration 1
DILUPBiCG:  Solving for h, Initial residual = 0.0325038, Final residual = 7.65898e-18, No Iterations 1
DILUPBiCG:  Solving for p, Initial residual = 4.97315e-05, Final residual = 2.37961e-13, No Iterations 1
diagonal:  Solving for rho, Initial residual = 0, Final residual = 0, No Iterations 0
time step continuity errors : sum local = 3.72067e-14, global = -1.56203e-14, cumulative = -1.65279e-13
rho max/min : 0.83124 0.710718
ExecutionTime = 0.13 s  ClockTime = 0 s

Courant Number mean: 4.56783e-06 max: 0.000197703
Time = 3e-06

diagonal:  Solving for rho, Initial residual = 0, Final residual = 0, No Iterations 0
PIMPLE: iteration 1
DILUPBiCG:  Solving for h, Initial residual = 0.031361, Final residual = 6.97927e-18, No Iterations 1
DILUPBiCG:  Solving for p, Initial residual = 5.13213e-05, Final residual = 2.4985e-13, No Iterations 1
diagonal:  Solving for rho, Initial residual = 0, Final residual = 0, No Iterations 0
time step continuity errors : sum local = 3.90514e-14, global = -1.66174e-14, cumulative = -1.81896e-13
rho max/min : 0.83124 0.710718
ExecutionTime = 0.14 s  ClockTime = 0 s

Courant Number mean: 4.72412e-06 max: 0.000204142
Time = 3.1e-06

diagonal:  Solving for rho, Initial residual = 0, Final residual = 0, No Iterations 0
PIMPLE: iteration 1
DILUPBiCG:  Solving for h, Initial residual = 0.0302935, Final residual = 1.20921e-17, No Iterations 1
DILUPBiCG:  Solving for p, Initial residual = 5.2902e-05, Final residual = 2.61929e-13, No Iterations 1
diagonal:  Solving for rho, Initial residual = 0, Final residual = 0, No Iterations 0
time step continuity errors : sum local = 4.09371e-14, global = -1.76405e-14, cumulative = -1.99537e-13
rho max/min : 0.83124 0.710718
ExecutionTime = 0.14 s  ClockTime = 0 s

Courant Number mean: 4.88019e-06 max: 0.000210549
Time = 3.2e-06

diagonal:  Solving for rho, Initial residual = 0, Final residual = 0, No Iterations 0
PIMPLE: iteration 1
DILUPBiCG:  Solving for h, Initial residual = 0.0292941, Final residual = 3.08279e-17, No Iterations 1
DILUPBiCG:  Solving for p, Initial residual = 5.44734e-05, Final residual = 2.74191e-13, No Iterations 1
diagonal:  Solving for rho, Initial residual = 0, Final residual = 0, No Iterations 0
time step continuity errors : sum local = 4.28412e-14, global = -1.86829e-14, cumulative = -2.1822e-13
rho max/min : 0.83124 0.710718
ExecutionTime = 0.14 s  ClockTime = 0 s

Courant Number mean: 5.03606e-06 max: 0.000216925
Time = 3.3e-06

diagonal:  Solving for rho, Initial residual = 0, Final residual = 0, No Iterations 0
PIMPLE: iteration 1
DILUPBiCG:  Solving for h, Initial residual = 0.0283564, Final residual = 1.13011e-17, No Iterations 1
DILUPBiCG:  Solving for p, Initial residual = 5.60351e-05, Final residual = 2.86626e-13, No Iterations 1
diagonal:  Solving for rho, Initial residual = 0, Final residual = 0, No Iterations 0
time step continuity errors : sum local = 4.47822e-14, global = -1.97418e-14, cumulative = -2.37961e-13
rho max/min : 0.83124 0.710718
ExecutionTime = 0.15 s  ClockTime = 0 s

Courant Number mean: 5.19169e-06 max: 0.000223268
Time = 3.4e-06

diagonal:  Solving for rho, Initial residual = 0, Final residual = 0, No Iterations 0
PIMPLE: iteration 1
DILUPBiCG:  Solving for h, Initial residual = 0.0274747, Final residual = 5.55322e-18, No Iterations 1
DILUPBiCG:  Solving for p, Initial residual = 5.75871e-05, Final residual = 2.99229e-13, No Iterations 1
diagonal:  Solving for rho, Initial residual = 0, Final residual = 0, No Iterations 0
time step continuity errors : sum local = 4.67339e-14, global = -2.08239e-14, cumulative = -2.58785e-13
rho max/min : 0.83124 0.710718
ExecutionTime = 0.15 s  ClockTime = 0 s

Courant Number mean: 5.34708e-06 max: 0.000229577
Time = 3.5e-06

diagonal:  Solving for rho, Initial residual = 0, Final residual = 0, No Iterations 0
PIMPLE: iteration 1
DILUPBiCG:  Solving for h, Initial residual = 0.0266442, Final residual = 5.22215e-18, No Iterations 1
DILUPBiCG:  Solving for p, Initial residual = 5.91291e-05, Final residual = 3.11991e-13, No Iterations 1
diagonal:  Solving for rho, Initial residual = 0, Final residual = 0, No Iterations 0
time step continuity errors : sum local = 4.87264e-14, global = -2.19202e-14, cumulative = -2.80705e-13
rho max/min : 0.83124 0.710718
ExecutionTime = 0.15 s  ClockTime = 0 s

Courant Number mean: 5.50222e-06 max: 0.00023585
Time = 3.6e-06

diagonal:  Solving for rho, Initial residual = 0, Final residual = 0, No Iterations 0
PIMPLE: iteration 1
DILUPBiCG:  Solving for h, Initial residual = 0.0258604, Final residual = 3.87849e-18, No Iterations 1
DILUPBiCG:  Solving for p, Initial residual = 6.06608e-05, Final residual = 3.24904e-13, No Iterations 1
diagonal:  Solving for rho, Initial residual = 0, Final residual = 0, No Iterations 0
time step continuity errors : sum local = 5.07298e-14, global = -2.3044e-14, cumulative = -3.03749e-13
rho max/min : 0.83124 0.710718
ExecutionTime = 0.15 s  ClockTime = 0 s

Courant Number mean: 5.65709e-06 max: 0.000242089
Time = 3.7e-06

diagonal:  Solving for rho, Initial residual = 0, Final residual = 0, No Iterations 0
PIMPLE: iteration 1
DILUPBiCG:  Solving for h, Initial residual = 0.0251194, Final residual = 5.37407e-18, No Iterations 1
DILUPBiCG:  Solving for p, Initial residual = 6.21822e-05, Final residual = 3.37959e-13, No Iterations 1
diagonal:  Solving for rho, Initial residual = 0, Final residual = 0, No Iterations 0
time step continuity errors : sum local = 5.2769e-14, global = -2.41861e-14, cumulative = -3.27936e-13
rho max/min : 0.83124 0.710718
ExecutionTime = 0.16 s  ClockTime = 0 s

Courant Number mean: 5.8117e-06 max: 0.00024829
Time = 3.8e-06

diagonal:  Solving for rho, Initial residual = 0, Final residual = 0, No Iterations 0
PIMPLE: iteration 1
DILUPBiCG:  Solving for h, Initial residual = 0.0244178, Final residual = 4.51587e-18, No Iterations 1
DILUPBiCG:  Solving for p, Initial residual = 6.36929e-05, Final residual = 3.5115e-13, No Iterations 1
diagonal:  Solving for rho, Initial residual = 0, Final residual = 0, No Iterations 0
time step continuity errors : sum local = 5.48169e-14, global = -2.53339e-14, cumulative = -3.5327e-13
rho max/min : 0.83124 0.710718
ExecutionTime = 0.16 s  ClockTime = 0 s

Courant Number mean: 5.96602e-06 max: 0.000254455
Time = 3.9e-06

diagonal:  Solving for rho, Initial residual = 0, Final residual = 0, No Iterations 0
PIMPLE: iteration 1
DILUPBiCG:  Solving for h, Initial residual = 0.0237525, Final residual = 1.98422e-18, No Iterations 1
DILUPBiCG:  Solving for p, Initial residual = 6.51928e-05, Final residual = 3.64468e-13, No Iterations 1
diagonal:  Solving for rho, Initial residual = 0, Final residual = 0, No Iterations 0
time step continuity errors : sum local = 5.68866e-14, global = -2.65086e-14, cumulative = -3.79778e-13
rho max/min : 0.83124 0.710718
ExecutionTime = 0.16 s  ClockTime = 0 s

Courant Number mean: 6.12005e-06 max: 0.000260581
Time = 4e-06

diagonal:  Solving for rho, Initial residual = 0, Final residual = 0, No Iterations 0
PIMPLE: iteration 1
DILUPBiCG:  Solving for h, Initial residual = 0.0231207, Final residual = 8.46731e-18, No Iterations 1
DILUPBiCG:  Solving for p, Initial residual = 6.66816e-05, Final residual = 3.77903e-13, No Iterations 1
diagonal:  Solving for rho, Initial residual = 0, Final residual = 0, No Iterations 0
time step continuity errors : sum local = 5.89657e-14, global = -2.76876e-14, cumulative = -4.07466e-13
rho max/min : 0.83124 0.710718
ExecutionTime = 0.17 s  ClockTime = 0 s

Courant Number mean: 6.27377e-06 max: 0.000266668
Time = 4.1e-06

diagonal:  Solving for rho, Initial residual = 0, Final residual = 0, No Iterations 0
PIMPLE: iteration 1
DILUPBiCG:  Solving for h, Initial residual = 0.0225198, Final residual = 3.73545e-18, No Iterations 1
DILUPBiCG:  Solving for p, Initial residual = 6.81593e-05, Final residual = 3.91449e-13, No Iterations 1
diagonal:  Solving for rho, Initial residual = 0, Final residual = 0, No Iterations 0
time step continuity errors : sum local = 6.10755e-14, global = -2.88839e-14, cumulative = -4.3635e-13
rho max/min : 0.83124 0.710718
ExecutionTime = 0.17 s  ClockTime = 0 s

Courant Number mean: 6.4272e-06 max: 0.000272715
Time = 4.2e-06

diagonal:  Solving for rho, Initial residual = 0, Final residual = 0, No Iterations 0
PIMPLE: iteration 1
DILUPBiCG:  Solving for h, Initial residual = 0.0219477, Final residual = 4.34078e-18, No Iterations 1
DILUPBiCG:  Solving for p, Initial residual = 6.96256e-05, Final residual = 4.05096e-13, No Iterations 1
diagonal:  Solving for rho, Initial residual = 0, Final residual = 0, No Iterations 0
time step continuity errors : sum local = 6.31929e-14, global = -3.00846e-14, cumulative = -4.66434e-13
rho max/min : 0.83124 0.710718
ExecutionTime = 0.17 s  ClockTime = 0 s

Courant Number mean: 6.5803e-06 max: 0.000278721
Time = 4.3e-06

diagonal:  Solving for rho, Initial residual = 0, Final residual = 0, No Iterations 0
PIMPLE: iteration 1
DILUPBiCG:  Solving for h, Initial residual = 0.0214023, Final residual = 4.15291e-18, No Iterations 1
DILUPBiCG:  Solving for p, Initial residual = 7.10803e-05, Final residual = 4.18836e-13, No Iterations 1
diagonal:  Solving for rho, Initial residual = 0, Final residual = 0, No Iterations 0
time step continuity errors : sum local = 6.53268e-14, global = -3.13099e-14, cumulative = -4.97744e-13
rho max/min : 0.83124 0.710718
ExecutionTime = 0.17 s  ClockTime = 0 s

Courant Number mean: 6.73309e-06 max: 0.000284687
Time = 4.4e-06

diagonal:  Solving for rho, Initial residual = 0, Final residual = 0, No Iterations 0
PIMPLE: iteration 1
DILUPBiCG:  Solving for h, Initial residual = 0.0208816, Final residual = 1.00078e-17, No Iterations 1
DILUPBiCG:  Solving for p, Initial residual = 7.25232e-05, Final residual = 4.3266e-13, No Iterations 1
diagonal:  Solving for rho, Initial residual = 0, Final residual = 0, No Iterations 0
time step continuity errors : sum local = 6.74696e-14, global = -3.25313e-14, cumulative = -5.30275e-13
rho max/min : 0.83124 0.710718
ExecutionTime = 0.18 s  ClockTime = 0 s

Courant Number mean: 6.88554e-06 max: 0.00029061
Time = 4.5e-06

diagonal:  Solving for rho, Initial residual = 0, Final residual = 0, No Iterations 0
PIMPLE: iteration 1
DILUPBiCG:  Solving for h, Initial residual = 0.0203841, Final residual = 1.75215e-17, No Iterations 1
DILUPBiCG:  Solving for p, Initial residual = 7.39543e-05, Final residual = 4.4656e-13, No Iterations 1
diagonal:  Solving for rho, Initial residual = 0, Final residual = 0, No Iterations 0
time step continuity errors : sum local = 6.96261e-14, global = -3.37662e-14, cumulative = -5.64042e-13
rho max/min : 0.83124 0.710718
ExecutionTime = 0.18 s  ClockTime = 0 s

Courant Number mean: 7.03766e-06 max: 0.000296491
Time = 4.6e-06

diagonal:  Solving for rho, Initial residual = 0, Final residual = 0, No Iterations 0
PIMPLE: iteration 1
DILUPBiCG:  Solving for h, Initial residual = 0.0199082, Final residual = 2.14324e-18, No Iterations 1
DILUPBiCG:  Solving for p, Initial residual = 7.53732e-05, Final residual = 4.60526e-13, No Iterations 1
diagonal:  Solving for rho, Initial residual = 0, Final residual = 0, No Iterations 0
time step continuity errors : sum local = 7.17859e-14, global = -3.5011e-14, cumulative = -5.99053e-13
rho max/min : 0.83124 0.710718
ExecutionTime = 0.18 s  ClockTime = 0 s

Courant Number mean: 7.18944e-06 max: 0.000302329
Time = 4.7e-06

diagonal:  Solving for rho, Initial residual = 0, Final residual = 0, No Iterations 0
PIMPLE: iteration 1
DILUPBiCG:  Solving for h, Initial residual = 0.0194525, Final residual = 1.80635e-18, No Iterations 1
DILUPBiCG:  Solving for p, Initial residual = 7.67799e-05, Final residual = 4.7455e-13, No Iterations 1
diagonal:  Solving for rho, Initial residual = 0, Final residual = 0, No Iterations 0
time step continuity errors : sum local = 7.39639e-14, global = -3.62735e-14, cumulative = -6.35326e-13
rho max/min : 0.83124 0.710718
ExecutionTime = 0.19 s  ClockTime = 0 s

Courant Number mean: 7.34087e-06 max: 0.000308122
Time = 4.8e-06

diagonal:  Solving for rho, Initial residual = 0, Final residual = 0, No Iterations 0
PIMPLE: iteration 1
DILUPBiCG:  Solving for h, Initial residual = 0.0190153, Final residual = 1.13753e-17, No Iterations 1
DILUPBiCG:  Solving for p, Initial residual = 7.81742e-05, Final residual = 4.88624e-13, No Iterations 1
diagonal:  Solving for rho, Initial residual = 0, Final residual = 0, No Iterations 0
time step continuity errors : sum local = 7.61412e-14, global = -3.75165e-14, cumulative = -6.72843e-13
rho max/min : 0.83124 0.710718
ExecutionTime = 0.2 s  ClockTime = 0 s

Courant Number mean: 7.49195e-06 max: 0.000313871
Time = 4.9e-06

diagonal:  Solving for rho, Initial residual = 0, Final residual = 0, No Iterations 0
PIMPLE: iteration 1
DILUPBiCG:  Solving for h, Initial residual = 0.0185956, Final residual = 8.34304e-18, No Iterations 1
DILUPBiCG:  Solving for p, Initial residual = 7.9556e-05, Final residual = 5.02738e-13, No Iterations 1
diagonal:  Solving for rho, Initial residual = 0, Final residual = 0, No Iterations 0
time step continuity errors : sum local = 7.83264e-14, global = -3.87954e-14, cumulative = -7.11638e-13
rho max/min : 0.83124 0.710718
ExecutionTime = 0.2 s  ClockTime = 0 s

Courant Number mean: 7.64267e-06 max: 0.000319575
Time = 5e-06

diagonal:  Solving for rho, Initial residual = 0, Final residual = 0, No Iterations 0
PIMPLE: iteration 1
DILUPBiCG:  Solving for h, Initial residual = 0.0181921, Final residual = 5.3726e-18, No Iterations 1
DILUPBiCG:  Solving for p, Initial residual = 8.0925e-05, Final residual = 5.16883e-13, No Iterations 1
diagonal:  Solving for rho, Initial residual = 0, Final residual = 0, No Iterations 0
time step continuity errors : sum local = 8.05128e-14, global = -4.00567e-14, cumulative = -7.51695e-13
rho max/min : 0.83124 0.710718
ExecutionTime = 0.2 s  ClockTime = 0 s

Courant Number mean: 7.79303e-06 max: 0.000325233
Time = 5.1e-06

diagonal:  Solving for rho, Initial residual = 0, Final residual = 0, No Iterations 0
PIMPLE: iteration 1
DILUPBiCG:  Solving for h, Initial residual = 0.0178042, Final residual = 3.87133e-18, No Iterations 1
DILUPBiCG:  Solving for p, Initial residual = 8.22812e-05, Final residual = 5.31051e-13, No Iterations 1
diagonal:  Solving for rho, Initial residual = 0, Final residual = 0, No Iterations 0
time step continuity errors : sum local = 8.27087e-14, global = -4.13318e-14, cumulative = -7.93026e-13
rho max/min : 0.83124 0.710718
ExecutionTime = 0.2 s  ClockTime = 0 s

Courant Number mean: 7.94303e-06 max: 0.000330846
Time = 5.2e-06

diagonal:  Solving for rho, Initial residual = 0, Final residual = 0, No Iterations 0
PIMPLE: iteration 1
DILUPBiCG:  Solving for h, Initial residual = 0.017431, Final residual = 4.73409e-18, No Iterations 1
DILUPBiCG:  Solving for p, Initial residual = 8.36244e-05, Final residual = 5.45233e-13, No Iterations 1
diagonal:  Solving for rho, Initial residual = 0, Final residual = 0, No Iterations 0
time step continuity errors : sum local = 8.48932e-14, global = -4.25982e-14, cumulative = -8.35625e-13
rho max/min : 0.83124 0.710718
ExecutionTime = 0.21 s  ClockTime = 0 s

Courant Number mean: 8.09266e-06 max: 0.000336411
Time = 5.3e-06

diagonal:  Solving for rho, Initial residual = 0, Final residual = 0, No Iterations 0
PIMPLE: iteration 1
DILUPBiCG:  Solving for h, Initial residual = 0.0170718, Final residual = 1.20421e-17, No Iterations 1
DILUPBiCG:  Solving for p, Initial residual = 8.49544e-05, Final residual = 5.59419e-13, No Iterations 1
diagonal:  Solving for rho, Initial residual = 0, Final residual = 0, No Iterations 0
time step continuity errors : sum local = 8.70989e-14, global = -4.38678e-14, cumulative = -8.79492e-13
rho max/min : 0.83124 0.710718
ExecutionTime = 0.21 s  ClockTime = 0 s

Courant Number mean: 8.24193e-06 max: 0.00034193
Time = 5.4e-06

diagonal:  Solving for rho, Initial residual = 0, Final residual = 0, No Iterations 0
PIMPLE: iteration 1
DILUPBiCG:  Solving for h, Initial residual = 0.0167257, Final residual = 1.13039e-17, No Iterations 1
DILUPBiCG:  Solving for p, Initial residual = 8.62712e-05, Final residual = 5.73602e-13, No Iterations 1
diagonal:  Solving for rho, Initial residual = 0, Final residual = 0, No Iterations 0
time step continuity errors : sum local = 8.92906e-14, global = -4.5142e-14, cumulative = -9.24634e-13
rho max/min : 0.83124 0.710718
ExecutionTime = 0.21 s  ClockTime = 0 s

Courant Number mean: 8.39081e-06 max: 0.0003474
Time = 5.5e-06

diagonal:  Solving for rho, Initial residual = 0, Final residual = 0, No Iterations 0
PIMPLE: iteration 1
DILUPBiCG:  Solving for h, Initial residual = 0.016392, Final residual = 8.87767e-18, No Iterations 1
DILUPBiCG:  Solving for p, Initial residual = 8.75747e-05, Final residual = 5.87772e-13, No Iterations 1
diagonal:  Solving for rho, Initial residual = 0, Final residual = 0, No Iterations 0
time step continuity errors : sum local = 9.14734e-14, global = -4.64221e-14, cumulative = -9.71056e-13
rho max/min : 0.83124 0.710718
ExecutionTime = 0.22 s  ClockTime = 0 s

Courant Number mean: 8.53933e-06 max: 0.000352823
Time = 5.6e-06

diagonal:  Solving for rho, Initial residual = 0, Final residual = 0, No Iterations 0
PIMPLE: iteration 1
DILUPBiCG:  Solving for h, Initial residual = 0.0160701, Final residual = 1.12842e-17, No Iterations 1
DILUPBiCG:  Solving for p, Initial residual = 8.88646e-05, Final residual = 6.0192e-13, No Iterations 1
diagonal:  Solving for rho, Initial residual = 0, Final residual = 0, No Iterations 0
time step continuity errors : sum local = 9.3661e-14, global = -4.76847e-14, cumulative = -1.01874e-12
rho max/min : 0.83124 0.710718
ExecutionTime = 0.22 s  ClockTime = 0 s

Courant Number mean: 8.68746e-06 max: 0.000358197
Time = 5.7e-06

diagonal:  Solving for rho, Initial residual = 0, Final residual = 0, No Iterations 0
PIMPLE: iteration 1
DILUPBiCG:  Solving for h, Initial residual = 0.0157592, Final residual = 6.53798e-18, No Iterations 1
DILUPBiCG:  Solving for p, Initial residual = 9.0141e-05, Final residual = 6.16037e-13, No Iterations 1
diagonal:  Solving for rho, Initial residual = 0, Final residual = 0, No Iterations 0
time step continuity errors : sum local = 9.58345e-14, global = -4.89553e-14, cumulative = -1.0677e-12
rho max/min : 0.83124 0.710718
ExecutionTime = 0.22 s  ClockTime = 0 s

Courant Number mean: 8.83522e-06 max: 0.000363523
Time = 5.8e-06

diagonal:  Solving for rho, Initial residual = 0, Final residual = 0, No Iterations 0
PIMPLE: iteration 1
DILUPBiCG:  Solving for h, Initial residual = 0.0154589, Final residual = 8.35189e-18, No Iterations 1
DILUPBiCG:  Solving for p, Initial residual = 9.14036e-05, Final residual = 6.30116e-13, No Iterations 1
diagonal:  Solving for rho, Initial residual = 0, Final residual = 0, No Iterations 0
time step continuity errors : sum local = 9.80092e-14, global = -5.02115e-14, cumulative = -1.11791e-12
rho max/min : 0.83124 0.710718
ExecutionTime = 0.22 s  ClockTime = 0 s

Courant Number mean: 8.98259e-06 max: 0.000368799
Time = 5.9e-06

diagonal:  Solving for rho, Initial residual = 0, Final residual = 0, No Iterations 0
PIMPLE: iteration 1
DILUPBiCG:  Solving for h, Initial residual = 0.0151686, Final residual = 1.38708e-17, No Iterations 1
DILUPBiCG:  Solving for p, Initial residual = 9.26524e-05, Final residual = 6.44146e-13, No Iterations 1
diagonal:  Solving for rho, Initial residual = 0, Final residual = 0, No Iterations 0
time step continuity errors : sum local = 1.00171e-13, global = -5.14615e-14, cumulative = -1.16937e-12
rho max/min : 0.83124 0.710718
ExecutionTime = 0.22 s  ClockTime = 0 s

Courant Number mean: 9.12958e-06 max: 0.000374026
Time = 6e-06

diagonal:  Solving for rho, Initial residual = 0, Final residual = 0, No Iterations 0
PIMPLE: iteration 1
DILUPBiCG:  Solving for h, Initial residual = 0.0148878, Final residual = 1.39618e-18, No Iterations 1
DILUPBiCG:  Solving for p, Initial residual = 9.38873e-05, Final residual = 6.5812e-13, No Iterations 1
diagonal:  Solving for rho, Initial residual = 0, Final residual = 0, No Iterations 0
time step continuity errors : sum local = 1.02324e-13, global = -5.27094e-14, cumulative = -1.22208e-12
rho max/min : 0.83124 0.710718
ExecutionTime = 0.23 s  ClockTime = 0 s

Courant Number mean: 9.2762e-06 max: 0.000379203
Time = 6.1e-06

diagonal:  Solving for rho, Initial residual = 0, Final residual = 0, No Iterations 0
PIMPLE: iteration 1
DILUPBiCG:  Solving for h, Initial residual = 0.0146161, Final residual = 1.33632e-17, No Iterations 1
DILUPBiCG:  Solving for p, Initial residual = 9.51082e-05, Final residual = 6.72028e-13, No Iterations 1
diagonal:  Solving for rho, Initial residual = 0, Final residual = 0, No Iterations 0
time step continuity errors : sum local = 1.04464e-13, global = -5.39639e-14, cumulative = -1.27604e-12
rho max/min : 0.83124 0.710718
ExecutionTime = 0.23 s  ClockTime = 0 s

Courant Number mean: 9.42243e-06 max: 0.000384329
Time = 6.2e-06

diagonal:  Solving for rho, Initial residual = 0, Final residual = 0, No Iterations 0
PIMPLE: iteration 1
DILUPBiCG:  Solving for h, Initial residual = 0.0143529, Final residual = 5.53978e-18, No Iterations 1
DILUPBiCG:  Solving for p, Initial residual = 9.63149e-05, Final residual = 6.85862e-13, No Iterations 1
diagonal:  Solving for rho, Initial residual = 0, Final residual = 0, No Iterations 0
time step continuity errors : sum local = 1.06592e-13, global = -5.51939e-14, cumulative = -1.33124e-12
rho max/min : 0.83124 0.710718
ExecutionTime = 0.23 s  ClockTime = 0 s

Courant Number mean: 9.56827e-06 max: 0.000389406
Time = 6.3e-06

diagonal:  Solving for rho, Initial residual = 0, Final residual = 0, No Iterations 0
PIMPLE: iteration 1
DILUPBiCG:  Solving for h, Initial residual = 0.0140978, Final residual = 1.25515e-17, No Iterations 1
DILUPBiCG:  Solving for p, Initial residual = 9.75075e-05, Final residual = 6.99614e-13, No Iterations 1
diagonal:  Solving for rho, Initial residual = 0, Final residual = 0, No Iterations 0
time step continuity errors : sum local = 1.08706e-13, global = -5.6429e-14, cumulative = -1.38767e-12
rho max/min : 0.83124 0.710718
ExecutionTime = 0.24 s  ClockTime = 0 s

Courant Number mean: 9.71374e-06 max: 0.000394431
Time = 6.4e-06

diagonal:  Solving for rho, Initial residual = 0, Final residual = 0, No Iterations 0
PIMPLE: iteration 1
DILUPBiCG:  Solving for h, Initial residual = 0.0138506, Final residual = 1.18544e-17, No Iterations 1
DILUPBiCG:  Solving for p, Initial residual = 9.86859e-05, Final residual = 7.13275e-13, No Iterations 1
diagonal:  Solving for rho, Initial residual = 0, Final residual = 0, No Iterations 0
time step continuity errors : sum local = 1.10806e-13, global = -5.76433e-14, cumulative = -1.44531e-12
rho max/min : 0.83124 0.710718
ExecutionTime = 0.24 s  ClockTime = 0 s

Courant Number mean: 9.85883e-06 max: 0.000399406
Time = 6.5e-06

diagonal:  Solving for rho, Initial residual = 0, Final residual = 0, No Iterations 0
PIMPLE: iteration 1
DILUPBiCG:  Solving for h, Initial residual = 0.0136108, Final residual = 8.43749e-18, No Iterations 1
DILUPBiCG:  Solving for p, Initial residual = 9.98499e-05, Final residual = 7.26836e-13, No Iterations 1
diagonal:  Solving for rho, Initial residual = 0, Final residual = 0, No Iterations 0
time step continuity errors : sum local = 1.1289e-13, global = -5.88365e-14, cumulative = -1.50415e-12
rho max/min : 0.83124 0.710718
ExecutionTime = 0.24 s  ClockTime = 0 s

Courant Number mean: 1.00035e-05 max: 0.00040433
Time = 6.6e-06

diagonal:  Solving for rho, Initial residual = 0, Final residual = 0, No Iterations 0
PIMPLE: iteration 1
DILUPBiCG:  Solving for h, Initial residual = 0.0133781, Final residual = 3.35492e-18, No Iterations 1
DILUPBiCG:  Solving for p, Initial residual = 0.000100999, Final residual = 7.4029e-13, No Iterations 1
diagonal:  Solving for rho, Initial residual = 0, Final residual = 0, No Iterations 0
time step continuity errors : sum local = 1.14956e-13, global = -6.00255e-14, cumulative = -1.56417e-12
rho max/min : 0.83124 0.710718
ExecutionTime = 0.24 s  ClockTime = 0 s

Courant Number mean: 1.01479e-05 max: 0.000409203
Time = 6.7e-06

diagonal:  Solving for rho, Initial residual = 0, Final residual = 0, No Iterations 0
PIMPLE: iteration 1
DILUPBiCG:  Solving for h, Initial residual = 0.0131522, Final residual = 9.93779e-18, No Iterations 1
DILUPBiCG:  Solving for p, Initial residual = 0.000102135, Final residual = 7.53627e-13, No Iterations 1
diagonal:  Solving for rho, Initial residual = 0, Final residual = 0, No Iterations 0
time step continuity errors : sum local = 1.16997e-13, global = -6.1218e-14, cumulative = -1.62539e-12
rho max/min : 0.83124 0.710718
ExecutionTime = 0.25 s  ClockTime = 0 s

Courant Number mean: 1.02918e-05 max: 0.000414024
Time = 6.8e-06

diagonal:  Solving for rho, Initial residual = 0, Final residual = 0, No Iterations 0
PIMPLE: iteration 1
DILUPBiCG:  Solving for h, Initial residual = 0.0129327, Final residual = 7.4775e-18, No Iterations 1
DILUPBiCG:  Solving for p, Initial residual = 0.000103255, Final residual = 7.6684e-13, No Iterations 1
diagonal:  Solving for rho, Initial residual = 0, Final residual = 0, No Iterations 0
time step continuity errors : sum local = 1.19019e-13, global = -6.23723e-14, cumulative = -1.68776e-12
rho max/min : 0.83124 0.710718
ExecutionTime = 0.25 s  ClockTime = 0 s

Courant Number mean: 1.04354e-05 max: 0.000418794
Time = 6.9e-06

diagonal:  Solving for rho, Initial residual = 0, Final residual = 0, No Iterations 0
PIMPLE: iteration 1
DILUPBiCG:  Solving for h, Initial residual = 0.0127195, Final residual = 9.50092e-18, No Iterations 1
DILUPBiCG:  Solving for p, Initial residual = 0.000104361, Final residual = 7.79921e-13, No Iterations 1
diagonal:  Solving for rho, Initial residual = 0, Final residual = 0, No Iterations 0
time step continuity errors : sum local = 1.2103e-13, global = -6.35249e-14, cumulative = -1.75129e-12
rho max/min : 0.83124 0.710718
ExecutionTime = 0.25 s  ClockTime = 0 s

Courant Number mean: 1.05786e-05 max: 0.000423512
Time = 7e-06

diagonal:  Solving for rho, Initial residual = 0, Final residual = 0, No Iterations 0
PIMPLE: iteration 1
DILUPBiCG:  Solving for h, Initial residual = 0.0125121, Final residual = 1.54803e-17, No Iterations 1
DILUPBiCG:  Solving for p, Initial residual = 0.000105453, Final residual = 7.92861e-13, No Iterations 1
diagonal:  Solving for rho, Initial residual = 0, Final residual = 0, No Iterations 0
time step continuity errors : sum local = 1.23012e-13, global = -6.46654e-14, cumulative = -1.81595e-12
rho max/min : 0.83124 0.710718
ExecutionTime = 0.25 s  ClockTime = 0 s

Courant Number mean: 1.07214e-05 max: 0.000428178
Time = 7.1e-06

diagonal:  Solving for rho, Initial residual = 0, Final residual = 0, No Iterations 0
PIMPLE: iteration 1
DILUPBiCG:  Solving for h, Initial residual = 0.0123105, Final residual = 7.80139e-18, No Iterations 1
DILUPBiCG:  Solving for p, Initial residual = 0.000106529, Final residual = 8.05653e-13, No Iterations 1
diagonal:  Solving for rho, Initial residual = 0, Final residual = 0, No Iterations 0
time step continuity errors : sum local = 1.24972e-13, global = -6.57819e-14, cumulative = -1.88173e-12
rho max/min : 0.83124 0.710718
ExecutionTime = 0.26 s  ClockTime = 0 s

Courant Number mean: 1.08639e-05 max: 0.000432792
Time = 7.2e-06

diagonal:  Solving for rho, Initial residual = 0, Final residual = 0, No Iterations 0
PIMPLE: iteration 1
DILUPBiCG:  Solving for h, Initial residual = 0.0121143, Final residual = 2.57333e-18, No Iterations 1
DILUPBiCG:  Solving for p, Initial residual = 0.000107591, Final residual = 8.18288e-13, No Iterations 1
diagonal:  Solving for rho, Initial residual = 0, Final residual = 0, No Iterations 0
time step continuity errors : sum local = 1.26902e-13, global = -6.68907e-14, cumulative = -1.94862e-12
rho max/min : 0.83124 0.710718
ExecutionTime = 0.26 s  ClockTime = 0 s

Courant Number mean: 1.1006e-05 max: 0.000437355
Time = 7.3e-06

diagonal:  Solving for rho, Initial residual = 0, Final residual = 0, No Iterations 0
PIMPLE: iteration 1
DILUPBiCG:  Solving for h, Initial residual = 0.0119233, Final residual = 1.33932e-18, No Iterations 1
DILUPBiCG:  Solving for p, Initial residual = 0.000108638, Final residual = 8.3076e-13, No Iterations 1
diagonal:  Solving for rho, Initial residual = 0, Final residual = 0, No Iterations 0
time step continuity errors : sum local = 1.28807e-13, global = -6.79724e-14, cumulative = -2.0166e-12
rho max/min : 0.83124 0.710718
ExecutionTime = 0.26 s  ClockTime = 0 s

Courant Number mean: 1.11478e-05 max: 0.000441866
Time = 7.4e-06

diagonal:  Solving for rho, Initial residual = 0, Final residual = 0, No Iterations 0
PIMPLE: iteration 1
DILUPBiCG:  Solving for h, Initial residual = 0.0117373, Final residual = 8.14522e-18, No Iterations 1
DILUPBiCG:  Solving for p, Initial residual = 0.000109671, Final residual = 8.43059e-13, No Iterations 1
diagonal:  Solving for rho, Initial residual = 0, Final residual = 0, No Iterations 0
time step continuity errors : sum local = 1.30671e-13, global = -6.9034e-14, cumulative = -2.08563e-12
rho max/min : 0.83124 0.710718
ExecutionTime = 0.26 s  ClockTime = 0 s

Courant Number mean: 1.12892e-05 max: 0.000446325
Time = 7.5e-06

diagonal:  Solving for rho, Initial residual = 0, Final residual = 0, No Iterations 0
PIMPLE: iteration 1
DILUPBiCG:  Solving for h, Initial residual = 0.0115562, Final residual = 1.61716e-18, No Iterations 1
DILUPBiCG:  Solving for p, Initial residual = 0.000110688, Final residual = 8.55179e-13, No Iterations 1
diagonal:  Solving for rho, Initial residual = 0, Final residual = 0, No Iterations 0
time step continuity errors : sum local = 1.32526e-13, global = -7.00875e-14, cumulative = -2.15572e-12
rho max/min : 0.83124 0.710718
ExecutionTime = 0.27 s  ClockTime = 0 s

Courant Number mean: 1.14302e-05 max: 0.000450732
Time = 7.6e-06

diagonal:  Solving for rho, Initial residual = 0, Final residual = 0, No Iterations 0
PIMPLE: iteration 1
DILUPBiCG:  Solving for h, Initial residual = 0.0113796, Final residual = 1.65042e-18, No Iterations 1
DILUPBiCG:  Solving for p, Initial residual = 0.000111691, Final residual = 8.67113e-13, No Iterations 1
diagonal:  Solving for rho, Initial residual = 0, Final residual = 0, No Iterations 0
time step continuity errors : sum local = 1.3435e-13, global = -7.11006e-14, cumulative = -2.22682e-12
rho max/min : 0.83124 0.710718
ExecutionTime = 0.27 s  ClockTime = 0 s

Courant Number mean: 1.1571e-05 max: 0.000455087
Time = 7.7e-06

diagonal:  Solving for rho, Initial residual = 0, Final residual = 0, No Iterations 0
PIMPLE: iteration 1
DILUPBiCG:  Solving for h, Initial residual = 0.0112076, Final residual = 6.56053e-18, No Iterations 1
DILUPBiCG:  Solving for p, Initial residual = 0.000112679, Final residual = 8.78852e-13, No Iterations 1
diagonal:  Solving for rho, Initial residual = 0, Final residual = 0, No Iterations 0
time step continuity errors : sum local = 1.36133e-13, global = -7.21106e-14, cumulative = -2.29893e-12
rho max/min : 0.83124 0.710718
ExecutionTime = 0.27 s  ClockTime = 0 s

Courant Number mean: 1.17113e-05 max: 0.000459391
Time = 7.8e-06

diagonal:  Solving for rho, Initial residual = 0, Final residual = 0, No Iterations 0
PIMPLE: iteration 1
DILUPBiCG:  Solving for h, Initial residual = 0.0110397, Final residual = 5.02168e-18, No Iterations 1
DILUPBiCG:  Solving for p, Initial residual = 0.000113652, Final residual = 8.90389e-13, No Iterations 1
diagonal:  Solving for rho, Initial residual = 0, Final residual = 0, No Iterations 0
time step continuity errors : sum local = 1.37891e-13, global = -7.30964e-14, cumulative = -2.37203e-12
rho max/min : 0.83124 0.710718
ExecutionTime = 0.27 s  ClockTime = 0 s

Courant Number mean: 1.18514e-05 max: 0.000463642
Time = 7.9e-06

diagonal:  Solving for rho, Initial residual = 0, Final residual = 0, No Iterations 0
PIMPLE: iteration 1
DILUPBiCG:  Solving for h, Initial residual = 0.010876, Final residual = 3.65992e-18, No Iterations 1
DILUPBiCG:  Solving for p, Initial residual = 0.00011461, Final residual = 9.01718e-13, No Iterations 1
diagonal:  Solving for rho, Initial residual = 0, Final residual = 0, No Iterations 0
time step continuity errors : sum local = 1.39615e-13, global = -7.40605e-14, cumulative = -2.44609e-12
rho max/min : 0.83124 0.710718
ExecutionTime = 0.28 s  ClockTime = 0 s

Courant Number mean: 1.19911e-05 max: 0.000467842
Time = 8e-06

diagonal:  Solving for rho, Initial residual = 0, Final residual = 0, No Iterations 0
PIMPLE: iteration 1
DILUPBiCG:  Solving for h, Initial residual = 0.0107163, Final residual = 2.82301e-18, No Iterations 1
DILUPBiCG:  Solving for p, Initial residual = 0.000115554, Final residual = 9.12831e-13, No Iterations 1
diagonal:  Solving for rho, Initial residual = 0, Final residual = 0, No Iterations 0
time step continuity errors : sum local = 1.41307e-13, global = -7.49993e-14, cumulative = -2.52109e-12
rho max/min : 0.83124 0.710718
ExecutionTime = 0.29 s  ClockTime = 0 s

Courant Number mean: 1.21304e-05 max: 0.000471991
Time = 8.1e-06

diagonal:  Solving for rho, Initial residual = 0, Final residual = 0, No Iterations 0
PIMPLE: iteration 1
DILUPBiCG:  Solving for h, Initial residual = 0.0105604, Final residual = 9.97425e-19, No Iterations 1
DILUPBiCG:  Solving for p, Initial residual = 0.000116482, Final residual = 9.23721e-13, No Iterations 1
diagonal:  Solving for rho, Initial residual = 0, Final residual = 0, No Iterations 0
time step continuity errors : sum local = 1.42955e-13, global = -7.59058e-14, cumulative = -2.59699e-12
rho max/min : 0.83124 0.710718
ExecutionTime = 0.29 s  ClockTime = 0 s

Courant Number mean: 1.22695e-05 max: 0.000476088
Time = 8.2e-06

diagonal:  Solving for rho, Initial residual = 0, Final residual = 0, No Iterations 0
PIMPLE: iteration 1
DILUPBiCG:  Solving for h, Initial residual = 0.0104081, Final residual = 6.66637e-18, No Iterations 1
DILUPBiCG:  Solving for p, Initial residual = 0.000117396, Final residual = 9.34381e-13, No Iterations 1
diagonal:  Solving for rho, Initial residual = 0, Final residual = 0, No Iterations 0
time step continuity errors : sum local = 1.44571e-13, global = -7.67986e-14, cumulative = -2.67379e-12
rho max/min : 0.83124 0.710718
ExecutionTime = 0.29 s  ClockTime = 0 s

Courant Number mean: 1.24082e-05 max: 0.000480133
Time = 8.3e-06

diagonal:  Solving for rho, Initial residual = 0, Final residual = 0, No Iterations 0
PIMPLE: iteration 1
DILUPBiCG:  Solving for h, Initial residual = 0.0102595, Final residual = 4.32154e-18, No Iterations 1
DILUPBiCG:  Solving for p, Initial residual = 0.000118294, Final residual = 9.44805e-13, No Iterations 1
diagonal:  Solving for rho, Initial residual = 0, Final residual = 0, No Iterations 0
time step continuity errors : sum local = 1.46153e-13, global = -7.76757e-14, cumulative = -2.75147e-12
rho max/min : 0.83124 0.710718
ExecutionTime = 0.3 s  ClockTime = 0 s

Courant Number mean: 1.25467e-05 max: 0.000484128
Time = 8.4e-06

diagonal:  Solving for rho, Initial residual = 0, Final residual = 0, No Iterations 0
PIMPLE: iteration 1
DILUPBiCG:  Solving for h, Initial residual = 0.0101142, Final residual = 3.77422e-18, No Iterations 1
DILUPBiCG:  Solving for p, Initial residual = 0.000119178, Final residual = 9.54986e-13, No Iterations 1
diagonal:  Solving for rho, Initial residual = 0, Final residual = 0, No Iterations 0
time step continuity errors : sum local = 1.47684e-13, global = -7.8505e-14, cumulative = -2.82997e-12
rho max/min : 0.83124 0.710718
ExecutionTime = 0.3 s  ClockTime = 0 s

Courant Number mean: 1.26848e-05 max: 0.000488071
Time = 8.5e-06

diagonal:  Solving for rho, Initial residual = 0, Final residual = 0, No Iterations 0
PIMPLE: iteration 1
DILUPBiCG:  Solving for h, Initial residual = 0.00997223, Final residual = 1.90028e-18, No Iterations 1
DILUPBiCG:  Solving for p, Initial residual = 0.000120047, Final residual = 9.64917e-13, No Iterations 1
diagonal:  Solving for rho, Initial residual = 0, Final residual = 0, No Iterations 0
time step continuity errors : sum local = 1.49188e-13, global = -7.93219e-14, cumulative = -2.90929e-12
rho max/min : 0.83124 0.710718
ExecutionTime = 0.3 s  ClockTime = 0 s

Courant Number mean: 1.28227e-05 max: 0.000491964
Time = 8.6e-06

diagonal:  Solving for rho, Initial residual = 0, Final residual = 0, No Iterations 0
PIMPLE: iteration 1
DILUPBiCG:  Solving for h, Initial residual = 0.00983346, Final residual = 5.92194e-18, No Iterations 1
DILUPBiCG:  Solving for p, Initial residual = 0.000120901, Final residual = 9.74592e-13, No Iterations 1
diagonal:  Solving for rho, Initial residual = 0, Final residual = 0, No Iterations 0
time step continuity errors : sum local = 1.50643e-13, global = -8.01036e-14, cumulative = -2.9894e-12
rho max/min : 0.83124 0.710718
ExecutionTime = 0.3 s  ClockTime = 0 s

Courant Number mean: 1.29603e-05 max: 0.000495806
Time = 8.7e-06

diagonal:  Solving for rho, Initial residual = 0, Final residual = 0, No Iterations 0
PIMPLE: iteration 1
DILUPBiCG:  Solving for h, Initial residual = 0.00969778, Final residual = 4.07549e-18, No Iterations 1
DILUPBiCG:  Solving for p, Initial residual = 0.000121741, Final residual = 9.84005e-13, No Iterations 1
diagonal:  Solving for rho, Initial residual = 0, Final residual = 0, No Iterations 0
time step continuity errors : sum local = 1.52072e-13, global = -8.0865e-14, cumulative = -3.07026e-12
rho max/min : 0.83124 0.710718
ExecutionTime = 0.31 s  ClockTime = 0 s

Courant Number mean: 1.30976e-05 max: 0.000499598
Time = 8.8e-06

diagonal:  Solving for rho, Initial residual = 0, Final residual = 0, No Iterations 0
PIMPLE: iteration 1
DILUPBiCG:  Solving for h, Initial residual = 0.00956508, Final residual = 3.36905e-18, No Iterations 1
DILUPBiCG:  Solving for p, Initial residual = 0.000122565, Final residual = 9.93149e-13, No Iterations 1
diagonal:  Solving for rho, Initial residual = 0, Final residual = 0, No Iterations 0
time step continuity errors : sum local = 1.53432e-13, global = -8.16026e-14, cumulative = -3.15186e-12
rho max/min : 0.83124 0.710718
ExecutionTime = 0.31 s  ClockTime = 0 s

Courant Number mean: 1.32346e-05 max: 0.000503339
Time = 8.9e-06

diagonal:  Solving for rho, Initial residual = 0, Final residual = 0, No Iterations 0
PIMPLE: iteration 1
DILUPBiCG:  Solving for h, Initial residual = 0.00943526, Final residual = 8.60894e-19, No Iterations 1
DILUPBiCG:  Solving for p, Initial residual = 0.000123375, Final residual = 1.00202e-12, No Iterations 1
diagonal:  Solving for rho, Initial residual = 0, Final residual = 0, No Iterations 0
time step continuity errors : sum local = 1.54774e-13, global = -8.22987e-14, cumulative = -3.23416e-12
rho max/min : 0.83124 0.710718
ExecutionTime = 0.31 s  ClockTime = 0 s

Courant Number mean: 1.33714e-05 max: 0.000507031
Time = 9e-06

diagonal:  Solving for rho, Initial residual = 0, Final residual = 0, No Iterations 0
PIMPLE: iteration 1
DILUPBiCG:  Solving for h, Initial residual = 0.00930824, Final residual = 2.22619e-18, No Iterations 1
DILUPBiCG:  Solving for p, Initial residual = 0.00012417, Final residual = 1.01061e-12, No Iterations 1
diagonal:  Solving for rho, Initial residual = 0, Final residual = 0, No Iterations 0
time step continuity errors : sum local = 1.56059e-13, global = -8.29801e-14, cumulative = -3.31714e-12
rho max/min : 0.83124 0.710718
ExecutionTime = 0.31 s  ClockTime = 0 s

Courant Number mean: 1.3508e-05 max: 0.000510673
Time = 9.1e-06

diagonal:  Solving for rho, Initial residual = 0, Final residual = 0, No Iterations 0
PIMPLE: iteration 1
DILUPBiCG:  Solving for h, Initial residual = 0.00918391, Final residual = 3.53125e-18, No Iterations 1
DILUPBiCG:  Solving for p, Initial residual = 0.000124951, Final residual = 1.01891e-12, No Iterations 1
diagonal:  Solving for rho, Initial residual = 0, Final residual = 0, No Iterations 0
time step continuity errors : sum local = 1.57296e-13, global = -8.36329e-14, cumulative = -3.40078e-12
rho max/min : 0.83124 0.710718
ExecutionTime = 0.32 s  ClockTime = 0 s

Courant Number mean: 1.36443e-05 max: 0.000514266
Time = 9.2e-06

diagonal:  Solving for rho, Initial residual = 0, Final residual = 0, No Iterations 0
PIMPLE: iteration 1
DILUPBiCG:  Solving for h, Initial residual = 0.0090622, Final residual = 1.60574e-18, No Iterations 1
DILUPBiCG:  Solving for p, Initial residual = 0.000125717, Final residual = 1.02692e-12, No Iterations 1
diagonal:  Solving for rho, Initial residual = 0, Final residual = 0, No Iterations 0
time step continuity errors : sum local = 1.58495e-13, global = -8.42432e-14, cumulative = -3.48502e-12
rho max/min : 0.83124 0.710718
ExecutionTime = 0.32 s  ClockTime = 0 s

Courant Number mean: 1.37804e-05 max: 0.000517809
Time = 9.3e-06

diagonal:  Solving for rho, Initial residual = 0, Final residual = 0, No Iterations 0
PIMPLE: iteration 1
DILUPBiCG:  Solving for h, Initial residual = 0.00894302, Final residual = 4.07444e-18, No Iterations 1
DILUPBiCG:  Solving for p, Initial residual = 0.000126468, Final residual = 1.03463e-12, No Iterations 1
diagonal:  Solving for rho, Initial residual = 0, Final residual = 0, No Iterations 0
time step continuity errors : sum local = 1.59647e-13, global = -8.48257e-14, cumulative = -3.56984e-12
rho max/min : 0.83124 0.710718
ExecutionTime = 0.32 s  ClockTime = 0 s

Courant Number mean: 1.39162e-05 max: 0.000521304
Time = 9.4e-06

diagonal:  Solving for rho, Initial residual = 0, Final residual = 0, No Iterations 0
PIMPLE: iteration 1
DILUPBiCG:  Solving for h, Initial residual = 0.00882629, Final residual = 2.13829e-18, No Iterations 1
DILUPBiCG:  Solving for p, Initial residual = 0.000127205, Final residual = 1.04204e-12, No Iterations 1
diagonal:  Solving for rho, Initial residual = 0, Final residual = 0, No Iterations 0
time step continuity errors : sum local = 1.60748e-13, global = -8.53884e-14, cumulative = -3.65523e-12
rho max/min : 0.83124 0.710718
ExecutionTime = 0.32 s  ClockTime = 0 s

Courant Number mean: 1.40519e-05 max: 0.00052475
Time = 9.5e-06

diagonal:  Solving for rho, Initial residual = 0, Final residual = 0, No Iterations 0
PIMPLE: iteration 1
DILUPBiCG:  Solving for h, Initial residual = 0.00871194, Final residual = 3.98718e-18, No Iterations 1
DILUPBiCG:  Solving for p, Initial residual = 0.000127927, Final residual = 1.04914e-12, No Iterations 1
diagonal:  Solving for rho, Initial residual = 0, Final residual = 0, No Iterations 0
time step continuity errors : sum local = 1.61802e-13, global = -8.59153e-14, cumulative = -3.74115e-12
rho max/min : 0.83124 0.710718
ExecutionTime = 0.33 s  ClockTime = 0 s

Courant Number mean: 1.41873e-05 max: 0.000528148
Time = 9.6e-06

diagonal:  Solving for rho, Initial residual = 0, Final residual = 0, No Iterations 0
PIMPLE: iteration 1
DILUPBiCG:  Solving for h, Initial residual = 0.0085999, Final residual = 1.63666e-18, No Iterations 1
DILUPBiCG:  Solving for p, Initial residual = 0.000128635, Final residual = 1.05592e-12, No Iterations 1
diagonal:  Solving for rho, Initial residual = 0, Final residual = 0, No Iterations 0
time step continuity errors : sum local = 1.62801e-13, global = -8.64057e-14, cumulative = -3.82755e-12
rho max/min : 0.83124 0.710718
ExecutionTime = 0.33 s  ClockTime = 0 s

Courant Number mean: 1.43226e-05 max: 0.000531498
Time = 9.7e-06

diagonal:  Solving for rho, Initial residual = 0, Final residual = 0, No Iterations 0
PIMPLE: iteration 1
DILUPBiCG:  Solving for h, Initial residual = 0.00849009, Final residual = 8.69624e-19, No Iterations 1
DILUPBiCG:  Solving for p, Initial residual = 0.000129328, Final residual = 1.06239e-12, No Iterations 1
diagonal:  Solving for rho, Initial residual = 0, Final residual = 0, No Iterations 0
time step continuity errors : sum local = 1.63754e-13, global = -8.68627e-14, cumulative = -3.91442e-12
rho max/min : 0.83124 0.710718
ExecutionTime = 0.33 s  ClockTime = 0 s

Courant Number mean: 1.44577e-05 max: 0.000534801
Time = 9.8e-06

diagonal:  Solving for rho, Initial residual = 0, Final residual = 0, No Iterations 0
PIMPLE: iteration 1
DILUPBiCG:  Solving for h, Initial residual = 0.00838245, Final residual = 1.49784e-18, No Iterations 1
DILUPBiCG:  Solving for p, Initial residual = 0.000130007, Final residual = 1.06853e-12, No Iterations 1
diagonal:  Solving for rho, Initial residual = 0, Final residual = 0, No Iterations 0
time step continuity errors : sum local = 1.64661e-13, global = -8.73003e-14, cumulative = -4.00172e-12
rho max/min : 0.83124 0.710718
ExecutionTime = 0.33 s  ClockTime = 0 s

Courant Number mean: 1.45926e-05 max: 0.000538057
Time = 9.9e-06

diagonal:  Solving for rho, Initial residual = 0, Final residual = 0, No Iterations 0
PIMPLE: iteration 1
DILUPBiCG:  Solving for h, Initial residual = 0.00827693, Final residual = 1.79383e-18, No Iterations 1
DILUPBiCG:  Solving for p, Initial residual = 0.000130672, Final residual = 1.07434e-12, No Iterations 1
diagonal:  Solving for rho, Initial residual = 0, Final residual = 0, No Iterations 0
time step continuity errors : sum local = 1.65511e-13, global = -8.76886e-14, cumulative = -4.08941e-12
rho max/min : 0.83124 0.710718
ExecutionTime = 0.34 s  ClockTime = 0 s

Courant Number mean: 1.47274e-05 max: 0.000541266
Time = 1e-05

diagonal:  Solving for rho, Initial residual = 0, Final residual = 0, No Iterations 0
PIMPLE: iteration 1
DILUPBiCG:  Solving for h, Initial residual = 0.00817345, Final residual = 5.21352e-18, No Iterations 1
DILUPBiCG:  Solving for p, Initial residual = 0.000131323, Final residual = 1.08038e-12, No Iterations 1
diagonal:  Solving for rho, Initial residual = 0, Final residual = 0, No Iterations 0
time step continuity errors : sum local = 1.66402e-13, global = -8.8054e-14, cumulative = -4.17746e-12
rho max/min : 0.83124 0.710718
ExecutionTime = 0.34 s  ClockTime = 0 s

Courant Number mean: 1.48621e-05 max: 0.000544428
Time = 1.01e-05

diagonal:  Solving for rho, Initial residual = 0, Final residual = 0, No Iterations 0
PIMPLE: iteration 1
DILUPBiCG:  Solving for h, Initial residual = 0.00807196, Final residual = 1.86871e-18, No Iterations 1
DILUPBiCG:  Solving for p, Initial residual = 0.00013196, Final residual = 1.08618e-12, No Iterations 1
diagonal:  Solving for rho, Initial residual = 0, Final residual = 0, No Iterations 0
time step continuity errors : sum local = 1.67245e-13, global = -8.83929e-14, cumulative = -4.26585e-12
rho max/min : 0.83124 0.710718
ExecutionTime = 0.34 s  ClockTime = 0 s

Courant Number mean: 1.49966e-05 max: 0.000547545
Time = 1.02e-05

diagonal:  Solving for rho, Initial residual = 0, Final residual = 0, No Iterations 0
PIMPLE: iteration 1
DILUPBiCG:  Solving for h, Initial residual = 0.0079724, Final residual = 6.99688e-18, No Iterations 1
DILUPBiCG:  Solving for p, Initial residual = 0.000132583, Final residual = 1.09166e-12, No Iterations 1
diagonal:  Solving for rho, Initial residual = 0, Final residual = 0, No Iterations 0
time step continuity errors : sum local = 1.68053e-13, global = -8.86835e-14, cumulative = -4.35454e-12
rho max/min : 0.83124 0.710718
ExecutionTime = 0.34 s  ClockTime = 0 s

Courant Number mean: 1.51311e-05 max: 0.000550616
Time = 1.03e-05

diagonal:  Solving for rho, Initial residual = 0, Final residual = 0, No Iterations 0
PIMPLE: iteration 1
DILUPBiCG:  Solving for h, Initial residual = 0.00787471, Final residual = 8.80304e-18, No Iterations 1
DILUPBiCG:  Solving for p, Initial residual = 0.000133192, Final residual = 1.09729e-12, No Iterations 1
diagonal:  Solving for rho, Initial residual = 0, Final residual = 0, No Iterations 0
time step continuity errors : sum local = 1.68869e-13, global = -8.89569e-14, cumulative = -4.44349e-12
rho max/min : 0.83124 0.710718
ExecutionTime = 0.35 s  ClockTime = 0 s

Courant Number mean: 1.52654e-05 max: 0.000553642
Time = 1.04e-05

diagonal:  Solving for rho, Initial residual = 0, Final residual = 0, No Iterations 0
PIMPLE: iteration 1
DILUPBiCG:  Solving for h, Initial residual = 0.00777886, Final residual = 3.55744e-18, No Iterations 1
DILUPBiCG:  Solving for p, Initial residual = 0.000133787, Final residual = 1.10269e-12, No Iterations 1
diagonal:  Solving for rho, Initial residual = 0, Final residual = 0, No Iterations 0
time step continuity errors : sum local = 1.69652e-13, global = -8.91827e-14, cumulative = -4.53268e-12
rho max/min : 0.83124 0.710718
ExecutionTime = 0.35 s  ClockTime = 0 s

Courant Number mean: 1.53997e-05 max: 0.000556624
Time = 1.05e-05

diagonal:  Solving for rho, Initial residual = 0, Final residual = 0, No Iterations 0
PIMPLE: iteration 1
DILUPBiCG:  Solving for h, Initial residual = 0.00768478, Final residual = 1.4534e-18, No Iterations 1
DILUPBiCG:  Solving for p, Initial residual = 0.000134368, Final residual = 1.10775e-12, No Iterations 1
diagonal:  Solving for rho, Initial residual = 0, Final residual = 0, No Iterations 0
time step continuity errors : sum local = 1.70379e-13, global = -8.93898e-14, cumulative = -4.62207e-12
rho max/min : 0.83124 0.710718
ExecutionTime = 0.35 s  ClockTime = 0 s

Courant Number mean: 1.5534e-05 max: 0.000559561
Time = 1.06e-05

diagonal:  Solving for rho, Initial residual = 0, Final residual = 0, No Iterations 0
PIMPLE: iteration 1
DILUPBiCG:  Solving for h, Initial residual = 0.00759243, Final residual = 8.14e-19, No Iterations 1
DILUPBiCG:  Solving for p, Initial residual = 0.000134936, Final residual = 1.11247e-12, No Iterations 1
diagonal:  Solving for rho, Initial residual = 0, Final residual = 0, No Iterations 0
time step continuity errors : sum local = 1.71068e-13, global = -8.95456e-14, cumulative = -4.71161e-12
rho max/min : 0.83124 0.710718
ExecutionTime = 0.36 s  ClockTime = 0 s

Courant Number mean: 1.56682e-05 max: 0.000562454
Time = 1.07e-05

diagonal:  Solving for rho, Initial residual = 0, Final residual = 0, No Iterations 0
PIMPLE: iteration 1
DILUPBiCG:  Solving for h, Initial residual = 0.00750177, Final residual = 6.62914e-18, No Iterations 1
DILUPBiCG:  Solving for p, Initial residual = 0.00013549, Final residual = 1.119e-12, No Iterations 1
diagonal:  Solving for rho, Initial residual = 0, Final residual = 0, No Iterations 0
time step continuity errors : sum local = 1.72025e-13, global = -8.96887e-14, cumulative = -4.8013e-12
rho max/min : 0.83124 0.710718
ExecutionTime = 0.36 s  ClockTime = 0 s

Courant Number mean: 1.58024e-05 max: 0.000565304
Time = 1.08e-05

diagonal:  Solving for rho, Initial residual = 0, Final residual = 0, No Iterations 0
PIMPLE: iteration 1
DILUPBiCG:  Solving for h, Initial residual = 0.00741274, Final residual = 9.301e-18, No Iterations 1
DILUPBiCG:  Solving for p, Initial residual = 0.00013603, Final residual = 1.12754e-12, No Iterations 1
diagonal:  Solving for rho, Initial residual = 0, Final residual = 0, No Iterations 0
time step continuity errors : sum local = 1.73294e-13, global = -8.97708e-14, cumulative = -4.89107e-12
rho max/min : 0.83124 0.710718
ExecutionTime = 0.36 s  ClockTime = 0 s

Courant Number mean: 1.59366e-05 max: 0.000568112
Time = 1.09e-05

diagonal:  Solving for rho, Initial residual = 0, Final residual = 0, No Iterations 0
PIMPLE: iteration 1
DILUPBiCG:  Solving for h, Initial residual = 0.00732531, Final residual = 3.20121e-18, No Iterations 1
DILUPBiCG:  Solving for p, Initial residual = 0.000136558, Final residual = 1.13582e-12, No Iterations 1
diagonal:  Solving for rho, Initial residual = 0, Final residual = 0, No Iterations 0
time step continuity errors : sum local = 1.74519e-13, global = -8.98339e-14, cumulative = -4.9809e-12
rho max/min : 0.83124 0.710718
ExecutionTime = 0.36 s  ClockTime = 0 s

Courant Number mean: 1.60708e-05 max: 0.000570877
Time = 1.1e-05

diagonal:  Solving for rho, Initial residual = 0, Final residual = 0, No Iterations 0
PIMPLE: iteration 1
DILUPBiCG:  Solving for h, Initial residual = 0.00723943, Final residual = 3.65008e-18, No Iterations 1
DILUPBiCG:  Solving for p, Initial residual = 0.000137072, Final residual = 1.14384e-12, No Iterations 1
diagonal:  Solving for rho, Initial residual = 0, Final residual = 0, No Iterations 0
time step continuity errors : sum local = 1.75697e-13, global = -8.98558e-14, cumulative = -5.07076e-12
rho max/min : 0.83124 0.710718
ExecutionTime = 0.37 s  ClockTime = 0 s

Courant Number mean: 1.62051e-05 max: 0.000573601
Time = 1.11e-05

diagonal:  Solving for rho, Initial residual = 0, Final residual = 0, No Iterations 0
PIMPLE: iteration 1
DILUPBiCG:  Solving for h, Initial residual = 0.00715507, Final residual = 8.11957e-19, No Iterations 1
DILUPBiCG:  Solving for p, Initial residual = 0.000137572, Final residual = 1.15159e-12, No Iterations 1
diagonal:  Solving for rho, Initial residual = 0, Final residual = 0, No Iterations 0
time step continuity errors : sum local = 1.7684e-13, global = -8.98464e-14, cumulative = -5.16061e-12
rho max/min : 0.83124 0.710718
ExecutionTime = 0.37 s  ClockTime = 0 s

Courant Number mean: 1.63395e-05 max: 0.000576283
Time = 1.12e-05

diagonal:  Solving for rho, Initial residual = 0, Final residual = 0, No Iterations 0
PIMPLE: iteration 1
DILUPBiCG:  Solving for h, Initial residual = 0.00707219, Final residual = 3.22065e-18, No Iterations 1
DILUPBiCG:  Solving for p, Initial residual = 0.00013806, Final residual = 1.15908e-12, No Iterations 1
diagonal:  Solving for rho, Initial residual = 0, Final residual = 0, No Iterations 0
time step continuity errors : sum local = 1.77942e-13, global = -8.98073e-14, cumulative = -5.25041e-12
rho max/min : 0.83124 0.710718
ExecutionTime = 0.37 s  ClockTime = 0 s

Courant Number mean: 1.64739e-05 max: 0.000578924
Time = 1.13e-05

diagonal:  Solving for rho, Initial residual = 0, Final residual = 0, No Iterations 0
PIMPLE: iteration 1
DILUPBiCG:  Solving for h, Initial residual = 0.00699074, Final residual = 4.74628e-18, No Iterations 1
DILUPBiCG:  Solving for p, Initial residual = 0.000138535, Final residual = 1.16628e-12, No Iterations 1
diagonal:  Solving for rho, Initial residual = 0, Final residual = 0, No Iterations 0
time step continuity errors : sum local = 1.78997e-13, global = -8.97236e-14, cumulative = -5.34014e-12
rho max/min : 0.83124 0.710718
ExecutionTime = 0.37 s  ClockTime = 0 s

Courant Number mean: 1.66086e-05 max: 0.000581526
Time = 1.14e-05

diagonal:  Solving for rho, Initial residual = 0, Final residual = 0, No Iterations 0
PIMPLE: iteration 1
DILUPBiCG:  Solving for h, Initial residual = 0.0069107, Final residual = 7.36912e-19, No Iterations 1
DILUPBiCG:  Solving for p, Initial residual = 0.000138997, Final residual = 1.17321e-12, No Iterations 1
diagonal:  Solving for rho, Initial residual = 0, Final residual = 0, No Iterations 0
time step continuity errors : sum local = 1.80017e-13, global = -8.96074e-14, cumulative = -5.42974e-12
rho max/min : 0.83124 0.710718
ExecutionTime = 0.38 s  ClockTime = 0 s

Courant Number mean: 1.67434e-05 max: 0.000584087
Time = 1.15e-05

diagonal:  Solving for rho, Initial residual = 0, Final residual = 0, No Iterations 0
PIMPLE: iteration 1
DILUPBiCG:  Solving for h, Initial residual = 0.00683204, Final residual = 2.72144e-18, No Iterations 1
DILUPBiCG:  Solving for p, Initial residual = 0.000139447, Final residual = 1.17986e-12, No Iterations 1
diagonal:  Solving for rho, Initial residual = 0, Final residual = 0, No Iterations 0
time step continuity errors : sum local = 1.80975e-13, global = -8.94578e-14, cumulative = -5.5192e-12
rho max/min : 0.83124 0.710718
ExecutionTime = 0.39 s  ClockTime = 0 s

Courant Number mean: 1.68783e-05 max: 0.00058661
Time = 1.16e-05

diagonal:  Solving for rho, Initial residual = 0, Final residual = 0, No Iterations 0
PIMPLE: iteration 1
DILUPBiCG:  Solving for h, Initial residual = 0.00675471, Final residual = 2.95446e-18, No Iterations 1
DILUPBiCG:  Solving for p, Initial residual = 0.000139884, Final residual = 1.18622e-12, No Iterations 1
diagonal:  Solving for rho, Initial residual = 0, Final residual = 0, No Iterations 0
time step continuity errors : sum local = 1.81908e-13, global = -8.92736e-14, cumulative = -5.60848e-12
rho max/min : 0.83124 0.710718
ExecutionTime = 0.39 s  ClockTime = 0 s

Courant Number mean: 1.70132e-05 max: 0.000589095
Time = 1.17e-05

diagonal:  Solving for rho, Initial residual = 0, Final residual = 0, No Iterations 0
PIMPLE: iteration 1
DILUPBiCG:  Solving for h, Initial residual = 0.00667869, Final residual = 2.97832e-18, No Iterations 1
DILUPBiCG:  Solving for p, Initial residual = 0.000140308, Final residual = 1.1923e-12, No Iterations 1
diagonal:  Solving for rho, Initial residual = 0, Final residual = 0, No Iterations 0
time step continuity errors : sum local = 1.82791e-13, global = -8.90641e-14, cumulative = -5.69754e-12
rho max/min : 0.83124 0.710718
ExecutionTime = 0.39 s  ClockTime = 0 s

Courant Number mean: 1.71483e-05 max: 0.000591541
Time = 1.18e-05

diagonal:  Solving for rho, Initial residual = 0, Final residual = 0, No Iterations 0
PIMPLE: iteration 1
DILUPBiCG:  Solving for h, Initial residual = 0.00660395, Final residual = 2.99088e-18, No Iterations 1
DILUPBiCG:  Solving for p, Initial residual = 0.00014072, Final residual = 1.1981e-12, No Iterations 1
diagonal:  Solving for rho, Initial residual = 0, Final residual = 0, No Iterations 0
time step continuity errors : sum local = 1.83622e-13, global = -8.88033e-14, cumulative = -5.78634e-12
rho max/min : 0.83124 0.710718
ExecutionTime = 0.4 s  ClockTime = 0 s

Courant Number mean: 1.72833e-05 max: 0.00059395
Time = 1.19e-05

diagonal:  Solving for rho, Initial residual = 0, Final residual = 0, No Iterations 0
PIMPLE: iteration 1
DILUPBiCG:  Solving for h, Initial residual = 0.00653046, Final residual = 1.26818e-18, No Iterations 1
DILUPBiCG:  Solving for p, Initial residual = 0.000141121, Final residual = 1.20361e-12, No Iterations 1
diagonal:  Solving for rho, Initial residual = 0, Final residual = 0, No Iterations 0
time step continuity errors : sum local = 1.84416e-13, global = -8.85317e-14, cumulative = -5.87488e-12
rho max/min : 0.83124 0.710718
ExecutionTime = 0.4 s  ClockTime = 0 s

Courant Number mean: 1.74182e-05 max: 0.000596323
Time = 1.2e-05

diagonal:  Solving for rho, Initial residual = 0, Final residual = 0, No Iterations 0
PIMPLE: iteration 1
DILUPBiCG:  Solving for h, Initial residual = 0.00645819, Final residual = 3.86704e-18, No Iterations 1
DILUPBiCG:  Solving for p, Initial residual = 0.000141509, Final residual = 1.20884e-12, No Iterations 1
diagonal:  Solving for rho, Initial residual = 0, Final residual = 0, No Iterations 0
time step continuity errors : sum local = 1.85168e-13, global = -8.82062e-14, cumulative = -5.96308e-12
rho max/min : 0.83124 0.710718
ExecutionTime = 0.4 s  ClockTime = 0 s

Courant Number mean: 1.75531e-05 max: 0.00059866
Time = 1.21e-05

diagonal:  Solving for rho, Initial residual = 0, Final residual = 0, No Iterations 0
PIMPLE: iteration 1
DILUPBiCG:  Solving for h, Initial residual = 0.00638711, Final residual = 4.93864e-18, No Iterations 1
DILUPBiCG:  Solving for p, Initial residual = 0.000141885, Final residual = 1.21378e-12, No Iterations 1
diagonal:  Solving for rho, Initial residual = 0, Final residual = 0, No Iterations 0
time step continuity errors : sum local = 1.85871e-13, global = -8.78589e-14, cumulative = -6.05094e-12
rho max/min : 0.83124 0.710718
ExecutionTime = 0.4 s  ClockTime = 0 s

Courant Number mean: 1.76878e-05 max: 0.000600961
Time = 1.22e-05

diagonal:  Solving for rho, Initial residual = 0, Final residual = 0, No Iterations 0
PIMPLE: iteration 1
DILUPBiCG:  Solving for h, Initial residual = 0.00631719, Final residual = 1.29142e-18, No Iterations 1
DILUPBiCG:  Solving for p, Initial residual = 0.000142249, Final residual = 1.21842e-12, No Iterations 1
diagonal:  Solving for rho, Initial residual = 0, Final residual = 0, No Iterations 0
time step continuity errors : sum local = 1.86522e-13, global = -8.74852e-14, cumulative = -6.13843e-12
rho max/min : 0.83124 0.710718
ExecutionTime = 0.41 s  ClockTime = 0 s

[...]
ExecutionTime = 7.4 s  ClockTime = 7 s

Courant Number mean: 0.000345019 max: 0.000696802
Time = 0.000247

diagonal:  Solving for rho, Initial residual = 0, Final residual = 0, No Iterations 0
PIMPLE: iteration 1
DILUPBiCG:  Solving for h, Initial residual = 0.000272943, Final residual = 3.91134e-19, No Iterations 1
DILUPBiCG:  Solving for p, Initial residual = 0.000303301, Final residual = 1.07281e-12, No Iterations 1
diagonal:  Solving for rho, Initial residual = 0, Final residual = 0, No Iterations 0
time step continuity errors : sum local = 7.97149e-14, global = 9.82941e-15, cumulative = 2.95146e-13
rho max/min : 0.83124 0.710718
ExecutionTime = 7.4 s  ClockTime = 7 s

Courant Number mean: 0.000345157 max: 0.000696794
Time = 0.0002471

diagonal:  Solving for rho, Initial residual = 0, Final residual = 0, No Iterations 0
PIMPLE: iteration 1
DILUPBiCG:  Solving for h, Initial residual = 0.000273029, Final residual = 5.97748e-20, No Iterations 1
DILUPBiCG:  Solving for p, Initial residual = 0.000303576, Final residual = 1.07745e-12, No Iterations 1
diagonal:  Solving for rho, Initial residual = 0, Final residual = 0, No Iterations 0
time step continuity errors : sum local = 8.00301e-14, global = 9.89148e-15, cumulative = 3.05037e-13
rho max/min : 0.83124 0.710718
ExecutionTime = 7.4 s  ClockTime = 7 s

Courant Number mean: 0.000345296 max: 0.000696787
Time = 0.0002472

diagonal:  Solving for rho, Initial residual = 0, Final residual = 0, No Iterations 0
PIMPLE: iteration 1
DILUPBiCG:  Solving for h, Initial residual = 0.000273093, Final residual = 3.65645e-19, No Iterations 1
DILUPBiCG:  Solving for p, Initial residual = 0.000303871, Final residual = 1.08229e-12, No Iterations 1
diagonal:  Solving for rho, Initial residual = 0, Final residual = 0, No Iterations 0
time step continuity errors : sum local = 8.03478e-14, global = 9.939e-15, cumulative = 3.14976e-13
rho max/min : 0.83124 0.710718
ExecutionTime = 7.41 s  ClockTime = 7 s

Courant Number mean: 0.000345434 max: 0.00069678
Time = 0.0002473

diagonal:  Solving for rho, Initial residual = 0, Final residual = 0, No Iterations 0
PIMPLE: iteration 1
DILUPBiCG:  Solving for h, Initial residual = 0.000273132, Final residual = 5.13234e-19, No Iterations 1
DILUPBiCG:  Solving for p, Initial residual = 0.000304134, Final residual = 1.08702e-12, No Iterations 1
diagonal:  Solving for rho, Initial residual = 0, Final residual = 0, No Iterations 0
time step continuity errors : sum local = 8.06637e-14, global = 1.00024e-14, cumulative = 3.24979e-13
rho max/min : 0.83124 0.710718
ExecutionTime = 7.41 s  ClockTime = 7 s

Courant Number mean: 0.000345572 max: 0.000696775
Time = 0.0002474

diagonal:  Solving for rho, Initial residual = 0, Final residual = 0, No Iterations 0
PIMPLE: iteration 1
DILUPBiCG:  Solving for h, Initial residual = 0.000273145, Final residual = 3.64529e-19, No Iterations 1
DILUPBiCG:  Solving for p, Initial residual = 0.000304375, Final residual = 1.09012e-12, No Iterations 1
diagonal:  Solving for rho, Initial residual = 0, Final residual = 0, No Iterations 0
time step continuity errors : sum local = 8.08567e-14, global = 1.01464e-14, cumulative = 3.35125e-13
rho max/min : 0.83124 0.710718
ExecutionTime = 7.41 s  ClockTime = 7 s

Courant Number mean: 0.000345711 max: 0.00069677
Time = 0.0002475

diagonal:  Solving for rho, Initial residual = 0, Final residual = 0, No Iterations 0
PIMPLE: iteration 1
DILUPBiCG:  Solving for h, Initial residual = 0.000273179, Final residual = 1.51555e-19, No Iterations 1
DILUPBiCG:  Solving for p, Initial residual = 0.000304687, Final residual = 1.09247e-12, No Iterations 1
diagonal:  Solving for rho, Initial residual = 0, Final residual = 0, No Iterations 0
time step continuity errors : sum local = 8.09985e-14, global = 1.02139e-14, cumulative = 3.45339e-13
rho max/min : 0.83124 0.710718
ExecutionTime = 7.42 s  ClockTime = 7 s

Courant Number mean: 0.000345849 max: 0.000696766
Time = 0.0002476

diagonal:  Solving for rho, Initial residual = 0, Final residual = 0, No Iterations 0
PIMPLE: iteration 1
DILUPBiCG:  Solving for h, Initial residual = 0.000273233, Final residual = 1.48946e-19, No Iterations 1
DILUPBiCG:  Solving for p, Initial residual = 0.000304972, Final residual = 1.09022e-12, No Iterations 1
diagonal:  Solving for rho, Initial residual = 0, Final residual = 0, No Iterations 0
time step continuity errors : sum local = 8.07949e-14, global = 1.00411e-14, cumulative = 3.5538e-13
rho max/min : 0.83124 0.710718
ExecutionTime = 7.42 s  ClockTime = 7 s

Courant Number mean: 0.000345987 max: 0.000696763
Time = 0.0002477

diagonal:  Solving for rho, Initial residual = 0, Final residual = 0, No Iterations 0
PIMPLE: iteration 1
DILUPBiCG:  Solving for h, Initial residual = 0.000273266, Final residual = 1.47468e-19, No Iterations 1
DILUPBiCG:  Solving for p, Initial residual = 0.000305232, Final residual = 1.09365e-12, No Iterations 1
diagonal:  Solving for rho, Initial residual = 0, Final residual = 0, No Iterations 0
time step continuity errors : sum local = 8.10066e-14, global = 1.00978e-14, cumulative = 3.65478e-13
rho max/min : 0.83124 0.710718
ExecutionTime = 7.42 s  ClockTime = 7 s

Courant Number mean: 0.000346126 max: 0.000696762
Time = 0.0002478

diagonal:  Solving for rho, Initial residual = 0, Final residual = 0, No Iterations 0
PIMPLE: iteration 1
DILUPBiCG:  Solving for h, Initial residual = 0.000273275, Final residual = 4.32208e-19, No Iterations 1
DILUPBiCG:  Solving for p, Initial residual = 0.000305463, Final residual = 1.09704e-12, No Iterations 1
diagonal:  Solving for rho, Initial residual = 0, Final residual = 0, No Iterations 0
time step continuity errors : sum local = 8.12253e-14, global = 1.01827e-14, cumulative = 3.7566e-13
rho max/min : 0.83124 0.710718
ExecutionTime = 7.42 s  ClockTime = 7 s

Courant Number mean: 0.000346265 max: 0.000696761
Time = 0.0002479

diagonal:  Solving for rho, Initial residual = 0, Final residual = 0, No Iterations 0
PIMPLE: iteration 1
DILUPBiCG:  Solving for h, Initial residual = 0.00027326, Final residual = 3.97211e-19, No Iterations 1
DILUPBiCG:  Solving for p, Initial residual = 0.000305666, Final residual = 1.09992e-12, No Iterations 1
diagonal:  Solving for rho, Initial residual = 0, Final residual = 0, No Iterations 0
time step continuity errors : sum local = 8.13948e-14, global = 1.02623e-14, cumulative = 3.85923e-13
rho max/min : 0.83124 0.710718
ExecutionTime = 7.43 s  ClockTime = 7 s

Courant Number mean: 0.000346403 max: 0.000696762
Time = 0.000248

diagonal:  Solving for rho, Initial residual = 0, Final residual = 0, No Iterations 0
PIMPLE: iteration 1
DILUPBiCG:  Solving for h, Initial residual = 0.000273219, Final residual = 9.37916e-20, No Iterations 1
DILUPBiCG:  Solving for p, Initial residual = 0.000305856, Final residual = 1.10447e-12, No Iterations 1
diagonal:  Solving for rho, Initial residual = 0, Final residual = 0, No Iterations 0
time step continuity errors : sum local = 8.16956e-14, global = 1.01357e-14, cumulative = 3.96058e-13
rho max/min : 0.83124 0.710718
ExecutionTime = 7.43 s  ClockTime = 7 s

Courant Number mean: 0.000346543 max: 0.000696764
Time = 0.0002481

diagonal:  Solving for rho, Initial residual = 0, Final residual = 0, No Iterations 0
PIMPLE: iteration 1
DILUPBiCG:  Solving for h, Initial residual = 0.000273211, Final residual = 1.51772e-19, No Iterations 1
DILUPBiCG:  Solving for p, Initial residual = 0.000306112, Final residual = 1.10737e-12, No Iterations 1
diagonal:  Solving for rho, Initial residual = 0, Final residual = 0, No Iterations 0
time step continuity errors : sum local = 8.18787e-14, global = 1.02655e-14, cumulative = 4.06324e-13
rho max/min : 0.83124 0.710718
ExecutionTime = 7.43 s  ClockTime = 7 s

Courant Number mean: 0.000346682 max: 0.000696768
Time = 0.0002482

diagonal:  Solving for rho, Initial residual = 0, Final residual = 0, No Iterations 0
PIMPLE: iteration 1
DILUPBiCG:  Solving for h, Initial residual = 0.000273223, Final residual = 3.9451e-19, No Iterations 1
DILUPBiCG:  Solving for p, Initial residual = 0.000306338, Final residual = 1.10975e-12, No Iterations 1
diagonal:  Solving for rho, Initial residual = 0, Final residual = 0, No Iterations 0
time step continuity errors : sum local = 8.20126e-14, global = 1.03956e-14, cumulative = 4.16719e-13
rho max/min : 0.83124 0.710718
ExecutionTime = 7.44 s  ClockTime = 7 s

Courant Number mean: 0.000346822 max: 0.000696773
Time = 0.0002483

diagonal:  Solving for rho, Initial residual = 0, Final residual = 0, No Iterations 0
PIMPLE: iteration 1
DILUPBiCG:  Solving for h, Initial residual = 0.000273226, Final residual = 1.77376e-19, No Iterations 1
DILUPBiCG:  Solving for p, Initial residual = 0.000306553, Final residual = 1.11177e-12, No Iterations 1
diagonal:  Solving for rho, Initial residual = 0, Final residual = 0, No Iterations 0
time step continuity errors : sum local = 8.21346e-14, global = 1.05542e-14, cumulative = 4.27274e-13
rho max/min : 0.83124 0.710718
ExecutionTime = 7.45 s  ClockTime = 7 s

Courant Number mean: 0.000346962 max: 0.00069678
Time = 0.0002484

diagonal:  Solving for rho, Initial residual = 0, Final residual = 0, No Iterations 0
PIMPLE: iteration 1
DILUPBiCG:  Solving for h, Initial residual = 0.000273239, Final residual = 9.68469e-20, No Iterations 1
DILUPBiCG:  Solving for p, Initial residual = 0.000306778, Final residual = 1.12505e-12, No Iterations 1
diagonal:  Solving for rho, Initial residual = 0, Final residual = 0, No Iterations 0
time step continuity errors : sum local = 8.30615e-14, global = 1.14921e-14, cumulative = 4.38766e-13
rho max/min : 0.83124 0.710718
ExecutionTime = 7.45 s  ClockTime = 7 s

Courant Number mean: 0.000347102 max: 0.000696789
Time = 0.0002485

diagonal:  Solving for rho, Initial residual = 0, Final residual = 0, No Iterations 0
PIMPLE: iteration 1
DILUPBiCG:  Solving for h, Initial residual = 0.000273226, Final residual = 1.57221e-19, No Iterations 1
DILUPBiCG:  Solving for p, Initial residual = 0.000306967, Final residual = 1.12571e-12, No Iterations 1
diagonal:  Solving for rho, Initial residual = 0, Final residual = 0, No Iterations 0
time step continuity errors : sum local = 8.30831e-14, global = 1.16689e-14, cumulative = 4.50435e-13
rho max/min : 0.83124 0.710718
ExecutionTime = 7.45 s  ClockTime = 7 s

Courant Number mean: 0.000347243 max: 0.0006968
Time = 0.0002486

diagonal:  Solving for rho, Initial residual = 0, Final residual = 0, No Iterations 0
PIMPLE: iteration 1
DILUPBiCG:  Solving for h, Initial residual = 0.000273187, Final residual = 1.25006e-19, No Iterations 1
DILUPBiCG:  Solving for p, Initial residual = 0.000307124, Final residual = 1.12155e-12, No Iterations 1
diagonal:  Solving for rho, Initial residual = 0, Final residual = 0, No Iterations 0
time step continuity errors : sum local = 8.27361e-14, global = 1.19557e-14, cumulative = 4.6239e-13
rho max/min : 0.83124 0.710718
ExecutionTime = 7.46 s  ClockTime = 7 s

Courant Number mean: 0.000347384 max: 0.000696813
Time = 0.0002487

diagonal:  Solving for rho, Initial residual = 0, Final residual = 0, No Iterations 0
PIMPLE: iteration 1
DILUPBiCG:  Solving for h, Initial residual = 0.000273129, Final residual = 4.15588e-19, No Iterations 1
DILUPBiCG:  Solving for p, Initial residual = 0.000307258, Final residual = 1.12236e-12, No Iterations 1
diagonal:  Solving for rho, Initial residual = 0, Final residual = 0, No Iterations 0
time step continuity errors : sum local = 8.27536e-14, global = 1.21355e-14, cumulative = 4.74526e-13
rho max/min : 0.83124 0.710718
ExecutionTime = 7.46 s  ClockTime = 7 s

Courant Number mean: 0.000347526 max: 0.000696829
Time = 0.0002488

diagonal:  Solving for rho, Initial residual = 0, Final residual = 0, No Iterations 0
PIMPLE: iteration 1
DILUPBiCG:  Solving for h, Initial residual = 0.00027305, Final residual = 6.11666e-20, No Iterations 1
DILUPBiCG:  Solving for p, Initial residual = 0.000307414, Final residual = 1.12468e-12, No Iterations 1
diagonal:  Solving for rho, Initial residual = 0, Final residual = 0, No Iterations 0
time step continuity errors : sum local = 8.28919e-14, global = 1.23085e-14, cumulative = 4.86834e-13
rho max/min : 0.83124 0.710718
ExecutionTime = 7.46 s  ClockTime = 7 s

Courant Number mean: 0.000347668 max: 0.000696848
Time = 0.0002489

diagonal:  Solving for rho, Initial residual = 0, Final residual = 0, No Iterations 0
PIMPLE: iteration 1
DILUPBiCG:  Solving for h, Initial residual = 0.000272948, Final residual = 7.76967e-19, No Iterations 1
DILUPBiCG:  Solving for p, Initial residual = 0.000307595, Final residual = 1.12664e-12, No Iterations 1
diagonal:  Solving for rho, Initial residual = 0, Final residual = 0, No Iterations 0
time step continuity errors : sum local = 8.29966e-14, global = 1.24636e-14, cumulative = 4.99298e-13
rho max/min : 0.83124 0.710718
ExecutionTime = 7.47 s  ClockTime = 7 s

Courant Number mean: 0.000347811 max: 0.00069687
Time = 0.000249

diagonal:  Solving for rho, Initial residual = 0, Final residual = 0, No Iterations 0
PIMPLE: iteration 1
DILUPBiCG:  Solving for h, Initial residual = 0.000272825, Final residual = 6.0456e-19, No Iterations 1
DILUPBiCG:  Solving for p, Initial residual = 0.000307815, Final residual = 1.12796e-12, No Iterations 1
diagonal:  Solving for rho, Initial residual = 0, Final residual = 0, No Iterations 0
time step continuity errors : sum local = 8.3047e-14, global = 1.26025e-14, cumulative = 5.119e-13
rho max/min : 0.83124 0.710718
ExecutionTime = 7.47 s  ClockTime = 7 s

Courant Number mean: 0.000347954 max: 0.000696895
Time = 0.0002491

diagonal:  Solving for rho, Initial residual = 0, Final residual = 0, No Iterations 0
PIMPLE: iteration 1
DILUPBiCG:  Solving for h, Initial residual = 0.000272781, Final residual = 2.37334e-19, No Iterations 1
DILUPBiCG:  Solving for p, Initial residual = 0.000308073, Final residual = 1.13013e-12, No Iterations 1
diagonal:  Solving for rho, Initial residual = 0, Final residual = 0, No Iterations 0
time step continuity errors : sum local = 8.3178e-14, global = 1.25351e-14, cumulative = 5.24435e-13
rho max/min : 0.83124 0.710718
ExecutionTime = 7.47 s  ClockTime = 7 s

Courant Number mean: 0.000348097 max: 0.000696908
Time = 0.0002492

diagonal:  Solving for rho, Initial residual = 0, Final residual = 0, No Iterations 0
PIMPLE: iteration 1
DILUPBiCG:  Solving for h, Initial residual = 0.000272723, Final residual = 1.224e-19, No Iterations 1
DILUPBiCG:  Solving for p, Initial residual = 0.000308302, Final residual = 1.12757e-12, No Iterations 1
diagonal:  Solving for rho, Initial residual = 0, Final residual = 0, No Iterations 0
time step continuity errors : sum local = 8.29492e-14, global = 1.27872e-14, cumulative = 5.37223e-13
rho max/min : 0.83124 0.710718
ExecutionTime = 7.47 s  ClockTime = 7 s

Courant Number mean: 0.000348241 max: 0.000696923
Time = 0.0002493

diagonal:  Solving for rho, Initial residual = 0, Final residual = 0, No Iterations 0
PIMPLE: iteration 1
DILUPBiCG:  Solving for h, Initial residual = 0.000272658, Final residual = 1.58765e-19, No Iterations 1
DILUPBiCG:  Solving for p, Initial residual = 0.000308554, Final residual = 1.12686e-12, No Iterations 1
diagonal:  Solving for rho, Initial residual = 0, Final residual = 0, No Iterations 0
time step continuity errors : sum local = 8.28537e-14, global = 1.29435e-14, cumulative = 5.50166e-13
rho max/min : 0.83124 0.710718
ExecutionTime = 7.48 s  ClockTime = 7 s

Courant Number mean: 0.000348386 max: 0.000696941
Time = 0.0002494

diagonal:  Solving for rho, Initial residual = 0, Final residual = 0, No Iterations 0
PIMPLE: iteration 1
DILUPBiCG:  Solving for h, Initial residual = 0.000272609, Final residual = 3.69503e-20, No Iterations 1
DILUPBiCG:  Solving for p, Initial residual = 0.000308772, Final residual = 1.12341e-12, No Iterations 1
diagonal:  Solving for rho, Initial residual = 0, Final residual = 0, No Iterations 0
time step continuity errors : sum local = 8.25562e-14, global = 1.2889e-14, cumulative = 5.63055e-13
rho max/min : 0.83124 0.710718
ExecutionTime = 7.48 s  ClockTime = 7 s

Courant Number mean: 0.00034853 max: 0.000697066
Time = 0.0002495

diagonal:  Solving for rho, Initial residual = 0, Final residual = 0, No Iterations 0
PIMPLE: iteration 1
DILUPBiCG:  Solving for h, Initial residual = 0.000272533, Final residual = 1.77994e-19, No Iterations 1
DILUPBiCG:  Solving for p, Initial residual = 0.000308954, Final residual = 1.11991e-12, No Iterations 1
diagonal:  Solving for rho, Initial residual = 0, Final residual = 0, No Iterations 0
time step continuity errors : sum local = 8.22629e-14, global = 1.28203e-14, cumulative = 5.75875e-13
rho max/min : 0.83124 0.710718
ExecutionTime = 7.48 s  ClockTime = 7 s

Courant Number mean: 0.000348675 max: 0.00069722
Time = 0.0002496

diagonal:  Solving for rho, Initial residual = 0, Final residual = 0, No Iterations 0
PIMPLE: iteration 1
DILUPBiCG:  Solving for h, Initial residual = 0.000272428, Final residual = 6.05134e-20, No Iterations 1
DILUPBiCG:  Solving for p, Initial residual = 0.000309097, Final residual = 1.11615e-12, No Iterations 1
diagonal:  Solving for rho, Initial residual = 0, Final residual = 0, No Iterations 0
time step continuity errors : sum local = 8.19564e-14, global = 1.27616e-14, cumulative = 5.88637e-13
rho max/min : 0.83124 0.710718
ExecutionTime = 7.49 s  ClockTime = 7 s

Courant Number mean: 0.00034882 max: 0.000697362
Time = 0.0002497

diagonal:  Solving for rho, Initial residual = 0, Final residual = 0, No Iterations 0
PIMPLE: iteration 1
DILUPBiCG:  Solving for h, Initial residual = 0.000272312, Final residual = 3.96171e-19, No Iterations 1
DILUPBiCG:  Solving for p, Initial residual = 0.000309212, Final residual = 1.11035e-12, No Iterations 1
diagonal:  Solving for rho, Initial residual = 0, Final residual = 0, No Iterations 0
time step continuity errors : sum local = 8.14831e-14, global = 1.26998e-14, cumulative = 6.01337e-13
rho max/min : 0.83124 0.710718
ExecutionTime = 7.49 s  ClockTime = 7 s

Courant Number mean: 0.000348965 max: 0.000697494
Time = 0.0002498

diagonal:  Solving for rho, Initial residual = 0, Final residual = 0, No Iterations 0
PIMPLE: iteration 1
DILUPBiCG:  Solving for h, Initial residual = 0.000272174, Final residual = 5.79726e-20, No Iterations 1
DILUPBiCG:  Solving for p, Initial residual = 0.000309312, Final residual = 1.11044e-12, No Iterations 1
diagonal:  Solving for rho, Initial residual = 0, Final residual = 0, No Iterations 0
time step continuity errors : sum local = 8.1437e-14, global = 1.26002e-14, cumulative = 6.13937e-13
rho max/min : 0.83124 0.710718
ExecutionTime = 7.49 s  ClockTime = 7 s

Courant Number mean: 0.000349111 max: 0.000697616
Time = 0.0002499

diagonal:  Solving for rho, Initial residual = 0, Final residual = 0, No Iterations 0
PIMPLE: iteration 1
DILUPBiCG:  Solving for h, Initial residual = 0.00027201, Final residual = 2.95235e-19, No Iterations 1
DILUPBiCG:  Solving for p, Initial residual = 0.000309376, Final residual = 1.11555e-12, No Iterations 1
diagonal:  Solving for rho, Initial residual = 0, Final residual = 0, No Iterations 0
time step continuity errors : sum local = 8.17966e-14, global = 1.25156e-14, cumulative = 6.26453e-13
rho max/min : 0.83124 0.710718
ExecutionTime = 7.49 s  ClockTime = 7 s

Courant Number mean: 0.000349256 max: 0.000697727
Time = 0.00025

diagonal:  Solving for rho, Initial residual = 0, Final residual = 0, No Iterations 0
PIMPLE: iteration 1
DILUPBiCG:  Solving for h, Initial residual = 0.00027182, Final residual = 1.55274e-19, No Iterations 1
DILUPBiCG:  Solving for p, Initial residual = 0.000309409, Final residual = 1.12174e-12, No Iterations 1
diagonal:  Solving for rho, Initial residual = 0, Final residual = 0, No Iterations 0
time step continuity errors : sum local = 8.2214e-14, global = 1.24487e-14, cumulative = 6.38901e-13
rho max/min : 0.83124 0.710718
ExecutionTime = 7.51 s  ClockTime = 7 s

End

