/*---------------------------------------------------------------------------*\
| =========                 |                                                 |
| \\      /  F ield         | OpenFOAM: The Open Source CFD Toolbox           |
|  \\    /   O peration     | Version:  2012                                  |
|   \\  /    A nd           | Website:  www.openfoam.com                      |
|    \\/     M anipulation  |                                                 |
\*---------------------------------------------------------------------------*/
Build  : _269d0ffd5c-20210619 OPENFOAM=2012 patch=210618
Arch   : "LSB;label=32;scalar=64"
Exec   : interFoam
Date   : Dec 17 2021
Time   : 12:56:13
Host   : friday
PID    : 11786
I/O    : uncollated
Case   : /home/aleksandr/OpenFOAM/aleksandr-v2012/hybridCentralSolvers/Sources/interTwoPhaseCentralFoam/tutorial/origDam/damBreak/damBreak
nProcs : 1
trapFpe: Floating point exception trapping enabled (FOAM_SIGFPE).
fileModificationChecking : Monitoring run-time modified files using timeStampMaster (fileModificationSkew 5, maxFileModificationPolls 20)
allowSystemOperations : Allowing user-supplied system call operations

// * * * * * * * * * * * * * * * * * * * * * * * * * * * * * * * * * * * * * //
Create time

Create mesh for time = 0


PIMPLE: Operating solver in PISO mode

Reading field p_rgh

Reading field U

Reading/calculating face flux field phi

Reading transportProperties

Selecting incompressible transport model Newtonian
Selecting incompressible transport model Newtonian
Selecting turbulence model type laminar
Selecting laminar stress model Stokes

Reading g

Reading hRef
Calculating field g.h

No MRF models present

No finite volume options present
DICPCG:  Solving for pcorr, Initial residual = 0, Final residual = 0, No Iterations 0
time step continuity errors : sum local = 0, global = 0, cumulative = 0
Courant Number mean: 0 max: 0

Starting time loop

Reading set description:
    gauge_1
    gauge_2

Courant Number mean: 0 max: 0
Interface Courant Number mean: 0 max: 0
deltaT = 0.00119048
Time = 0.00119048

PIMPLE: iteration 1
smoothSolver:  Solving for alpha.water, Initial residual = 0, Final residual = 0, No Iterations 0
Phase-1 volume fraction = 0.130194  Min(alpha.water) = 0  Max(alpha.water) = 1
MULES: Correcting alpha.water
MULES: Correcting alpha.water
Phase-1 volume fraction = 0.130194  Min(alpha.water) = 0  Max(alpha.water) = 1
DICPCG:  Solving for p_rgh, Initial residual = 1, Final residual = 0.00312169, No Iterations 1
time step continuity errors : sum local = 0.000863663, global = -1.26728e-12, cumulative = -1.26728e-12
DICPCG:  Solving for p_rgh, Initial residual = 0.00146342, Final residual = 6.18289e-05, No Iterations 13
time step continuity errors : sum local = 3.6494e-05, global = -1.00159e-05, cumulative = -1.00159e-05
DICPCG:  Solving for p_rgh, Initial residual = 5.08541e-05, Final residual = 8.19126e-08, No Iterations 48
time step continuity errors : sum local = 5.88485e-08, global = 1.01685e-08, cumulative = -1.00057e-05
ExecutionTime = 0.07 s  ClockTime = 1 s

Courant Number mean: 0.00124881 max: 0.107249
Interface Courant Number mean: 0 max: 0
deltaT = 0.00143557
Time = 0.00262605

PIMPLE: iteration 1
smoothSolver:  Solving for alpha.water, Initial residual = 0.000290383, Final residual = 2.11982e-12, No Iterations 2
Phase-1 volume fraction = 0.130194  Min(alpha.water) = 0  Max(alpha.water) = 1
MULES: Correcting alpha.water
MULES: Correcting alpha.water
Phase-1 volume fraction = 0.130194  Min(alpha.water) = -4.39952e-13  Max(alpha.water) = 1
DICPCG:  Solving for p_rgh, Initial residual = 0.0031395, Final residual = 0.000102399, No Iterations 2
time step continuity errors : sum local = 9.1513e-05, global = 2.99222e-08, cumulative = -9.97576e-06
DICPCG:  Solving for p_rgh, Initial residual = 0.000211896, Final residual = 9.10795e-06, No Iterations 35
time step continuity errors : sum local = 8.1438e-06, global = -9.3753e-08, cumulative = -1.00695e-05
DICPCG:  Solving for p_rgh, Initial residual = 2.98932e-05, Final residual = 8.14188e-08, No Iterations 44
time step continuity errors : sum local = 7.27745e-08, global = 6.30378e-09, cumulative = -1.00632e-05
ExecutionTime = 0.08 s  ClockTime = 1 s

Courant Number mean: 0.00189431 max: 0.0565578
Interface Courant Number mean: 5.13564e-05 max: 0.0565577
deltaT = 0.00169193
Time = 0.00431798

PIMPLE: iteration 1
smoothSolver:  Solving for alpha.water, Initial residual = 0.00019803, Final residual = 9.30662e-14, No Iterations 2
Phase-1 volume fraction = 0.130194  Min(alpha.water) = 0  Max(alpha.water) = 1
MULES: Correcting alpha.water
MULES: Correcting alpha.water
Phase-1 volume fraction = 0.130194  Min(alpha.water) = -9.79197e-19  Max(alpha.water) = 1
DICPCG:  Solving for p_rgh, Initial residual = 0.00273124, Final residual = 6.16049e-05, No Iterations 2
time step continuity errors : sum local = 6.92441e-05, global = 1.49937e-09, cumulative = -1.00617e-05
DICPCG:  Solving for p_rgh, Initial residual = 6.25071e-05, Final residual = 3.05902e-06, No Iterations 35
time step continuity errors : sum local = 3.43598e-06, global = -1.18949e-07, cumulative = -1.01807e-05
DICPCG:  Solving for p_rgh, Initial residual = 3.47921e-06, Final residual = 9.40959e-08, No Iterations 19
time step continuity errors : sum local = 1.05759e-07, global = -1.82192e-08, cumulative = -1.01989e-05
ExecutionTime = 0.09 s  ClockTime = 1 s

Courant Number mean: 0.00331888 max: 0.0534697
Interface Courant Number mean: 4.41182e-05 max: 0.0450521
deltaT = 0.00198617
Time = 0.00630415

PIMPLE: iteration 1
smoothSolver:  Solving for alpha.water, Initial residual = 0.000238462, Final residual = 9.45711e-14, No Iterations 2
Phase-1 volume fraction = 0.130194  Min(alpha.water) = 0  Max(alpha.water) = 1
MULES: Correcting alpha.water
MULES: Correcting alpha.water
Phase-1 volume fraction = 0.130194  Min(alpha.water) = -5.57503e-18  Max(alpha.water) = 1
DICPCG:  Solving for p_rgh, Initial residual = 0.00350686, Final residual = 0.000151504, No Iterations 1
time step continuity errors : sum local = 0.000215472, global = -4.95908e-08, cumulative = -1.02485e-05
DICPCG:  Solving for p_rgh, Initial residual = 0.000154439, Final residual = 7.68456e-06, No Iterations 9
time step continuity errors : sum local = 1.09092e-05, global = -2.47879e-07, cumulative = -1.04964e-05
DICPCG:  Solving for p_rgh, Initial residual = 8.12392e-06, Final residual = 8.72723e-08, No Iterations 37
time step continuity errors : sum local = 1.23925e-07, global = -6.61173e-09, cumulative = -1.0503e-05
ExecutionTime = 0.1 s  ClockTime = 1 s

Courant Number mean: 0.0055053 max: 0.0627662
Interface Courant Number mean: 0.000169865 max: 0.0498258
deltaT = 0.00242755
Time = 0.0087317

PIMPLE: iteration 1
smoothSolver:  Solving for alpha.water, Initial residual = 0.000363751, Final residual = 7.84629e-13, No Iterations 2
Phase-1 volume fraction = 0.130194  Min(alpha.water) = 0  Max(alpha.water) = 1
MULES: Correcting alpha.water
MULES: Correcting alpha.water
Phase-1 volume fraction = 0.130194  Min(alpha.water) = -2.41747e-15  Max(alpha.water) = 1
DICPCG:  Solving for p_rgh, Initial residual = 0.00551558, Final residual = 0.000169062, No Iterations 1
time step continuity errors : sum local = 0.000336393, global = 2.62072e-08, cumulative = -1.04768e-05
DICPCG:  Solving for p_rgh, Initial residual = 0.000171904, Final residual = 7.84569e-06, No Iterations 9
time step continuity errors : sum local = 1.55563e-05, global = -4.25586e-08, cumulative = -1.05193e-05
DICPCG:  Solving for p_rgh, Initial residual = 8.71621e-06, Final residual = 9.60299e-08, No Iterations 37
time step continuity errors : sum local = 1.90468e-07, global = 7.16289e-10, cumulative = -1.05186e-05
ExecutionTime = 0.11 s  ClockTime = 1 s

Courant Number mean: 0.00920126 max: 0.0824845
Interface Courant Number mean: 0.000329327 max: 0.0761241
deltaT = 0.00294774
Time = 0.0116794

PIMPLE: iteration 1
smoothSolver:  Solving for alpha.water, Initial residual = 0.000565308, Final residual = 5.38215e-12, No Iterations 2
Phase-1 volume fraction = 0.130194  Min(alpha.water) = 0  Max(alpha.water) = 1
MULES: Correcting alpha.water
MULES: Correcting alpha.water
Phase-1 volume fraction = 0.130194  Min(alpha.water) = -1.62597e-11  Max(alpha.water) = 1
DICPCG:  Solving for p_rgh, Initial residual = 0.00871918, Final residual = 0.000196784, No Iterations 1
time step continuity errors : sum local = 0.000548294, global = 4.38665e-08, cumulative = -1.04747e-05
DICPCG:  Solving for p_rgh, Initial residual = 0.000199357, Final residual = 9.62492e-06, No Iterations 9
time step continuity errors : sum local = 2.66621e-05, global = 1.65155e-07, cumulative = -1.03096e-05
DICPCG:  Solving for p_rgh, Initial residual = 1.1969e-05, Final residual = 9.62333e-08, No Iterations 37
time step continuity errors : sum local = 2.66726e-07, global = 6.12523e-09, cumulative = -1.03035e-05
ExecutionTime = 0.12 s  ClockTime = 1 s

Courant Number mean: 0.0148208 max: 0.123701
Interface Courant Number mean: 0.000611219 max: 0.120358
deltaT = 0.00348369
Time = 0.0151631

PIMPLE: iteration 1
smoothSolver:  Solving for alpha.water, Initial residual = 0.000849836, Final residual = 2.93983e-11, No Iterations 2
Phase-1 volume fraction = 0.130194  Min(alpha.water) = 0  Max(alpha.water) = 1
MULES: Correcting alpha.water
MULES: Correcting alpha.water
Phase-1 volume fraction = 0.130194  Min(alpha.water) = -5.94861e-11  Max(alpha.water) = 1
DICPCG:  Solving for p_rgh, Initial residual = 0.013282, Final residual = 0.000227428, No Iterations 1
time step continuity errors : sum local = 0.00084574, global = 7.60019e-08, cumulative = -1.02275e-05
DICPCG:  Solving for p_rgh, Initial residual = 0.000231315, Final residual = 1.11594e-05, No Iterations 10
time step continuity errors : sum local = 4.11362e-05, global = 5.97964e-07, cumulative = -9.62949e-06
DICPCG:  Solving for p_rgh, Initial residual = 1.59273e-05, Final residual = 8.2506e-08, No Iterations 37
time step continuity errors : sum local = 3.04454e-07, global = -2.73963e-08, cumulative = -9.65688e-06
ExecutionTime = 0.13 s  ClockTime = 1 s

Courant Number mean: 0.0226292 max: 0.182513
Interface Courant Number mean: 0.00104234 max: 0.180025
deltaT = 0.00435461
Time = 0.0195177

PIMPLE: iteration 1
smoothSolver:  Solving for alpha.water, Initial residual = 0.00132801, Final residual = 1.8151e-10, No Iterations 2
Phase-1 volume fraction = 0.130194  Min(alpha.water) = 0  Max(alpha.water) = 1
MULES: Correcting alpha.water
MULES: Correcting alpha.water
Phase-1 volume fraction = 0.130194  Min(alpha.water) = -2.08912e-10  Max(alpha.water) = 1
DICPCG:  Solving for p_rgh, Initial residual = 0.0209383, Final residual = 0.000284866, No Iterations 1
time step continuity errors : sum local = 0.00157085, global = 7.38979e-08, cumulative = -9.58298e-06
DICPCG:  Solving for p_rgh, Initial residual = 0.000292349, Final residual = 1.38015e-05, No Iterations 10
time step continuity errors : sum local = 7.50546e-05, global = 2.56251e-06, cumulative = -7.02048e-06
DICPCG:  Solving for p_rgh, Initial residual = 2.40437e-05, Final residual = 8.95389e-08, No Iterations 41
time step continuity errors : sum local = 4.87693e-07, global = -5.77505e-08, cumulative = -7.07823e-06
ExecutionTime = 0.14 s  ClockTime = 1 s

Courant Number mean: 0.0363516 max: 0.275257
Interface Courant Number mean: 0.00179128 max: 0.275257
deltaT = 0.00508038
Time = 0.0245981

PIMPLE: iteration 1
smoothSolver:  Solving for alpha.water, Initial residual = 0.00192781, Final residual = 7.15328e-10, No Iterations 2
Phase-1 volume fraction = 0.130194  Min(alpha.water) = 0  Max(alpha.water) = 1
MULES: Correcting alpha.water
MULES: Correcting alpha.water
Phase-1 volume fraction = 0.130194  Min(alpha.water) = -4.24292e-09  Max(alpha.water) = 1
DICPCG:  Solving for p_rgh, Initial residual = 0.0304055, Final residual = 0.000290246, No Iterations 1
time step continuity errors : sum local = 0.00205296, global = 2.07506e-07, cumulative = -6.87072e-06
DICPCG:  Solving for p_rgh, Initial residual = 0.00030468, Final residual = 1.40279e-05, No Iterations 11
time step continuity errors : sum local = 9.71448e-05, global = 2.71549e-06, cumulative = -4.15523e-06
DICPCG:  Solving for p_rgh, Initial residual = 3.16351e-05, Final residual = 9.99704e-08, No Iterations 42
time step continuity errors : sum local = 6.94393e-07, global = -5.87579e-08, cumulative = -4.21399e-06
ExecutionTime = 0.15 s  ClockTime = 1 s

Courant Number mean: 0.0535464 max: 0.394234
Interface Courant Number mean: 0.00274395 max: 0.380092
deltaT = 0.00635047
Time = 0.0309486

PIMPLE: iteration 1
smoothSolver:  Solving for alpha.water, Initial residual = 0.00298789, Final residual = 8.25479e-13, No Iterations 3
Phase-1 volume fraction = 0.130194  Min(alpha.water) = 0  Max(alpha.water) = 1
MULES: Correcting alpha.water
MULES: Correcting alpha.water
Phase-1 volume fraction = 0.130194  Min(alpha.water) = -1.47418e-08  Max(alpha.water) = 1
DICPCG:  Solving for p_rgh, Initial residual = 0.0464966, Final residual = 0.000325484, No Iterations 1
time step continuity errors : sum local = 0.00330113, global = 7.49951e-07, cumulative = -3.46404e-06
DICPCG:  Solving for p_rgh, Initial residual = 0.000357081, Final residual = 1.78302e-05, No Iterations 11
time step continuity errors : sum local = 0.000174823, global = 9.19436e-06, cumulative = 5.73033e-06
DICPCG:  Solving for p_rgh, Initial residual = 5.04683e-05, Final residual = 9.13845e-08, No Iterations 45
time step continuity errors : sum local = 9.00787e-07, global = -5.47865e-08, cumulative = 5.67554e-06
ExecutionTime = 0.16 s  ClockTime = 1 s

Courant Number mean: 0.0842607 max: 0.573418
Interface Courant Number mean: 0.00441472 max: 0.562699
deltaT = 0.00635047
Time = 0.0372991

PIMPLE: iteration 1
smoothSolver:  Solving for alpha.water, Initial residual = 0.00368084, Final residual = 2.52177e-12, No Iterations 3
Phase-1 volume fraction = 0.130194  Min(alpha.water) = 0  Max(alpha.water) = 1
MULES: Correcting alpha.water
MULES: Correcting alpha.water
Phase-1 volume fraction = 0.130194  Min(alpha.water) = -1.47205e-10  Max(alpha.water) = 1
DICPCG:  Solving for p_rgh, Initial residual = 0.0587006, Final residual = 0.0004006, No Iterations 1
time step continuity errors : sum local = 0.00369386, global = 7.66909e-07, cumulative = 6.44245e-06
DICPCG:  Solving for p_rgh, Initial residual = 0.000451896, Final residual = 2.18734e-05, No Iterations 11
time step continuity errors : sum local = 0.000192718, global = 1.67947e-05, cumulative = 2.32372e-05
DICPCG:  Solving for p_rgh, Initial residual = 6.50623e-05, Final residual = 9.39946e-08, No Iterations 42
time step continuity errors : sum local = 8.35182e-07, global = -5.7404e-08, cumulative = 2.31798e-05
ExecutionTime = 0.18 s  ClockTime = 1 s

Courant Number mean: 0.100761 max: 0.67514
Interface Courant Number mean: 0.00589176 max: 0.67514
deltaT = 0.00635047
Time = 0.0436495

PIMPLE: iteration 1
smoothSolver:  Solving for alpha.water, Initial residual = 0.00431179, Final residual = 9.44748e-09, No Iterations 3
Phase-1 volume fraction = 0.130194  Min(alpha.water) = 0  Max(alpha.water) = 1
MULES: Correcting alpha.water
MULES: Correcting alpha.water
Phase-1 volume fraction = 0.130194  Min(alpha.water) = -8.14848e-11  Max(alpha.water) = 1
DICPCG:  Solving for p_rgh, Initial residual = 0.0682148, Final residual = 0.000501343, No Iterations 1
time step continuity errors : sum local = 0.00413178, global = 4.9849e-07, cumulative = 2.36783e-05
DICPCG:  Solving for p_rgh, Initial residual = 0.000581236, Final residual = 2.82923e-05, No Iterations 10
time step continuity errors : sum local = 0.000220669, global = 2.23752e-05, cumulative = 4.60534e-05
DICPCG:  Solving for p_rgh, Initial residual = 8.78322e-05, Final residual = 9.49249e-08, No Iterations 46
time step continuity errors : sum local = 7.49217e-07, global = -2.01582e-08, cumulative = 4.60333e-05
ExecutionTime = 0.19 s  ClockTime = 1 s

Courant Number mean: 0.116957 max: 0.767062
Interface Courant Number mean: 0.00869566 max: 0.740895
deltaT = 0.00635047
Time = 0.05

PIMPLE: iteration 1
smoothSolver:  Solving for alpha.water, Initial residual = 0.00491406, Final residual = 7.48517e-11, No Iterations 4
Phase-1 volume fraction = 0.130194  Min(alpha.water) = 0  Max(alpha.water) = 1
MULES: Correcting alpha.water
MULES: Correcting alpha.water
Phase-1 volume fraction = 0.130194  Min(alpha.water) = -2.2765e-10  Max(alpha.water) = 1
DICPCG:  Solving for p_rgh, Initial residual = 0.0718002, Final residual = 0.000642817, No Iterations 1
time step continuity errors : sum local = 0.00467853, global = 4.22917e-07, cumulative = 4.64562e-05
DICPCG:  Solving for p_rgh, Initial residual = 0.000740954, Final residual = 3.39327e-05, No Iterations 10
time step continuity errors : sum local = 0.000232851, global = 3.62417e-05, cumulative = 8.26979e-05
DICPCG:  Solving for p_rgh, Initial residual = 0.000116576, Final residual = 7.62912e-08, No Iterations 46
time step continuity errors : sum local = 5.32263e-07, global = 5.60813e-08, cumulative = 8.2754e-05
ExecutionTime = 0.21 s  ClockTime = 1 s

Courant Number mean: 0.132693 max: 0.860145
Interface Courant Number mean: 0.0105297 max: 0.822277
deltaT = 0.00714286
Time = 0.0571429

PIMPLE: iteration 1
smoothSolver:  Solving for alpha.water, Initial residual = 0.00618067, Final residual = 1.48774e-09, No Iterations 4
Phase-1 volume fraction = 0.130194  Min(alpha.water) = 0  Max(alpha.water) = 1
MULES: Correcting alpha.water
MULES: Correcting alpha.water
Phase-1 volume fraction = 0.130194  Min(alpha.water) = -7.80464e-10  Max(alpha.water) = 1
DICPCG:  Solving for p_rgh, Initial residual = 0.0724677, Final residual = 0.000998257, No Iterations 1
time step continuity errors : sum local = 0.00794581, global = 4.88505e-07, cumulative = 8.32425e-05
DICPCG:  Solving for p_rgh, Initial residual = 0.00116382, Final residual = 5.10709e-05, No Iterations 11
time step continuity errors : sum local = 0.000382269, global = 7.02072e-05, cumulative = 0.00015345
DICPCG:  Solving for p_rgh, Initial residual = 0.000197979, Final residual = 8.87516e-08, No Iterations 50
time step continuity errors : sum local = 6.80802e-07, global = -3.2755e-08, cumulative = 0.000153417
ExecutionTime = 0.22 s  ClockTime = 1 s

Courant Number mean: 0.16925 max: 1.06055
Interface Courant Number mean: 0.0145945 max: 1.02526
deltaT = 0.00714286
Time = 0.0642857

PIMPLE: iteration 1
smoothSolver:  Solving for alpha.water, Initial residual = 0.00697899, Final residual = 6.41087e-09, No Iterations 4
Phase-1 volume fraction = 0.130194  Min(alpha.water) = 0  Max(alpha.water) = 1
MULES: Correcting alpha.water
MULES: Correcting alpha.water
Phase-1 volume fraction = 0.130194  Min(alpha.water) = -2.15722e-09  Max(alpha.water) = 1
DICPCG:  Solving for p_rgh, Initial residual = 0.059654, Final residual = 0.00152268, No Iterations 1
time step continuity errors : sum local = 0.0109145, global = -3.33414e-07, cumulative = 0.000153084
DICPCG:  Solving for p_rgh, Initial residual = 0.00174404, Final residual = 7.32646e-05, No Iterations 11
time step continuity errors : sum local = 0.000499856, global = 0.00011106, cumulative = 0.000264144
DICPCG:  Solving for p_rgh, Initial residual = 0.00026971, Final residual = 7.33331e-08, No Iterations 52
time step continuity errors : sum local = 5.15858e-07, global = -1.07107e-08, cumulative = 0.000264133
ExecutionTime = 0.23 s  ClockTime = 1 s

Courant Number mean: 0.188718 max: 1.22328
Interface Courant Number mean: 0.0173364 max: 1.11447
deltaT = 0.00595238
Time = 0.0702381

PIMPLE: iteration 1
smoothSolver:  Solving for alpha.water, Initial residual = 0.00642271, Final residual = 4.91143e-09, No Iterations 4
Phase-1 volume fraction = 0.130194  Min(alpha.water) = -8.95886e-21  Max(alpha.water) = 1
MULES: Correcting alpha.water
MULES: Correcting alpha.water
Phase-1 volume fraction = 0.130194  Min(alpha.water) = -2.34179e-08  Max(alpha.water) = 1
DICPCG:  Solving for p_rgh, Initial residual = 0.0368375, Final residual = 0.00151193, No Iterations 1
time step continuity errors : sum local = 0.00743459, global = -1.43647e-06, cumulative = 0.000262697
DICPCG:  Solving for p_rgh, Initial residual = 0.00171739, Final residual = 8.56975e-05, No Iterations 10
time step continuity errors : sum local = 0.000412123, global = 8.36049e-05, cumulative = 0.000346302
DICPCG:  Solving for p_rgh, Initial residual = 0.000255391, Final residual = 8.76705e-08, No Iterations 51
time step continuity errors : sum local = 4.33262e-07, global = -1.99825e-08, cumulative = 0.000346282
ExecutionTime = 0.24 s  ClockTime = 1 s

Courant Number mean: 0.170197 max: 1.24333
Interface Courant Number mean: 0.0154453 max: 0.96254
deltaT = 0.00496032
Time = 0.0751984

PIMPLE: iteration 1
smoothSolver:  Solving for alpha.water, Initial residual = 0.00572702, Final residual = 2.2695e-09, No Iterations 4
Phase-1 volume fraction = 0.130194  Min(alpha.water) = -1.365e-13  Max(alpha.water) = 1
MULES: Correcting alpha.water
MULES: Correcting alpha.water
Phase-1 volume fraction = 0.130194  Min(alpha.water) = -1.30544e-08  Max(alpha.water) = 1
DICPCG:  Solving for p_rgh, Initial residual = 0.0537965, Final residual = 0.00079032, No Iterations 1
time step continuity errors : sum local = 0.00323822, global = -1.29108e-06, cumulative = 0.000344991
DICPCG:  Solving for p_rgh, Initial residual = 0.000910009, Final residual = 4.40946e-05, No Iterations 11
time step continuity errors : sum local = 0.000172111, global = 3.62012e-05, cumulative = 0.000381192
DICPCG:  Solving for p_rgh, Initial residual = 0.000137605, Final residual = 8.5283e-08, No Iterations 49
time step continuity errors : sum local = 3.40041e-07, global = -2.74749e-08, cumulative = 0.000381164
ExecutionTime = 0.26 s  ClockTime = 1 s

Courant Number mean: 0.150324 max: 1.22246
Interface Courant Number mean: 0.0138015 max: 0.862968
deltaT = 0.0041336
Time = 0.079332

PIMPLE: iteration 1
smoothSolver:  Solving for alpha.water, Initial residual = 0.00506706, Final residual = 7.7608e-10, No Iterations 4
Phase-1 volume fraction = 0.130194  Min(alpha.water) = -2.50397e-14  Max(alpha.water) = 1
MULES: Correcting alpha.water
MULES: Correcting alpha.water
Phase-1 volume fraction = 0.130194  Min(alpha.water) = -8.14285e-10  Max(alpha.water) = 1
DICPCG:  Solving for p_rgh, Initial residual = 0.0563785, Final residual = 0.000775263, No Iterations 1
time step continuity errors : sum local = 0.0022678, global = -4.87024e-07, cumulative = 0.000380677
DICPCG:  Solving for p_rgh, Initial residual = 0.000882938, Final residual = 4.00451e-05, No Iterations 11
time step continuity errors : sum local = 0.000111117, global = 2.05877e-05, cumulative = 0.000401265
DICPCG:  Solving for p_rgh, Initial residual = 0.000124325, Final residual = 7.1308e-08, No Iterations 49
time step continuity errors : sum local = 2.01598e-07, global = -8.56467e-09, cumulative = 0.000401256
ExecutionTime = 0.27 s  ClockTime = 1 s

Courant Number mean: 0.131156 max: 1.17565
Interface Courant Number mean: 0.0120647 max: 0.753334
deltaT = 0.00344466
Time = 0.0827767

PIMPLE: iteration 1
smoothSolver:  Solving for alpha.water, Initial residual = 0.00444459, Final residual = 2.5437e-10, No Iterations 4
Phase-1 volume fraction = 0.130194  Min(alpha.water) = -1.42952e-14  Max(alpha.water) = 1
MULES: Correcting alpha.water
MULES: Correcting alpha.water
Phase-1 volume fraction = 0.130194  Min(alpha.water) = -1.80032e-09  Max(alpha.water) = 1
DICPCG:  Solving for p_rgh, Initial residual = 0.0415074, Final residual = 0.000903674, No Iterations 1
time step continuity errors : sum local = 0.00172975, global = -2.20145e-07, cumulative = 0.000401036
DICPCG:  Solving for p_rgh, Initial residual = 0.00100847, Final residual = 4.19388e-05, No Iterations 11
time step continuity errors : sum local = 7.73137e-05, global = 1.51352e-05, cumulative = 0.000416171
DICPCG:  Solving for p_rgh, Initial residual = 0.000125743, Final residual = 7.2119e-08, No Iterations 49
time step continuity errors : sum local = 1.35207e-07, global = -3.03311e-09, cumulative = 0.000416168
ExecutionTime = 0.28 s  ClockTime = 1 s

Courant Number mean: 0.113497 max: 1.12944
Interface Courant Number mean: 0.0102721 max: 0.644799
deltaT = 0.00287055
Time = 0.0856472

PIMPLE: iteration 1
smoothSolver:  Solving for alpha.water, Initial residual = 0.00385925, Final residual = 8.616e-09, No Iterations 3
Phase-1 volume fraction = 0.130194  Min(alpha.water) = -1.05339e-14  Max(alpha.water) = 1
MULES: Correcting alpha.water
MULES: Correcting alpha.water
Phase-1 volume fraction = 0.130194  Min(alpha.water) = -3.53345e-09  Max(alpha.water) = 1
DICPCG:  Solving for p_rgh, Initial residual = 0.0317941, Final residual = 0.00102245, No Iterations 1
time step continuity errors : sum local = 0.00132498, global = -1.42817e-07, cumulative = 0.000416026
DICPCG:  Solving for p_rgh, Initial residual = 0.00112462, Final residual = 4.7889e-05, No Iterations 11
time step continuity errors : sum local = 6.05457e-05, global = 1.21922e-05, cumulative = 0.000428218
DICPCG:  Solving for p_rgh, Initial residual = 0.000123509, Final residual = 9.99135e-08, No Iterations 48
time step continuity errors : sum local = 1.281e-07, global = -5.60823e-09, cumulative = 0.000428212
ExecutionTime = 0.29 s  ClockTime = 1 s

Courant Number mean: 0.0974895 max: 1.04901
Interface Courant Number mean: 0.00853595 max: 0.640807
deltaT = 0.00287055
Time = 0.0885178

PIMPLE: iteration 1
smoothSolver:  Solving for alpha.water, Initial residual = 0.00396876, Final residual = 8.80139e-09, No Iterations 3
Phase-1 volume fraction = 0.130194  Min(alpha.water) = -7.2018e-15  Max(alpha.water) = 1
MULES: Correcting alpha.water
MULES: Correcting alpha.water
Phase-1 volume fraction = 0.130194  Min(alpha.water) = -3.02774e-10  Max(alpha.water) = 1
DICPCG:  Solving for p_rgh, Initial residual = 0.0305252, Final residual = 0.00090892, No Iterations 1
time step continuity errors : sum local = 0.00119443, global = -1.31051e-07, cumulative = 0.000428081
DICPCG:  Solving for p_rgh, Initial residual = 0.00101893, Final residual = 4.95738e-05, No Iterations 11
time step continuity errors : sum local = 6.35713e-05, global = 1.14835e-05, cumulative = 0.000439565
DICPCG:  Solving for p_rgh, Initial residual = 0.000118974, Final residual = 9.78867e-08, No Iterations 48
time step continuity errors : sum local = 1.2716e-07, global = -5.49634e-09, cumulative = 0.000439559
ExecutionTime = 0.3 s  ClockTime = 1 s

Courant Number mean: 0.100277 max: 1.1581
Interface Courant Number mean: 0.00832516 max: 0.657472
deltaT = 0.00229644
Time = 0.0908142

PIMPLE: iteration 1
smoothSolver:  Solving for alpha.water, Initial residual = 0.00326193, Final residual = 2.67964e-09, No Iterations 3
Phase-1 volume fraction = 0.130194  Min(alpha.water) = -5.27214e-13  Max(alpha.water) = 1
MULES: Correcting alpha.water
MULES: Correcting alpha.water
Phase-1 volume fraction = 0.130194  Min(alpha.water) = -7.49469e-10  Max(alpha.water) = 1
DICPCG:  Solving for p_rgh, Initial residual = 0.0286944, Final residual = 0.000716103, No Iterations 1
time step continuity errors : sum local = 0.000650606, global = -1.13834e-07, cumulative = 0.000439445
DICPCG:  Solving for p_rgh, Initial residual = 0.000786939, Final residual = 3.81787e-05, No Iterations 11
time step continuity errors : sum local = 3.3942e-05, global = 5.739e-06, cumulative = 0.000445184
DICPCG:  Solving for p_rgh, Initial residual = 8.30227e-05, Final residual = 8.27822e-08, No Iterations 47
time step continuity errors : sum local = 7.43689e-08, global = -4.8732e-09, cumulative = 0.000445179
ExecutionTime = 0.31 s  ClockTime = 1 s

Courant Number mean: 0.0818465 max: 0.988717
Interface Courant Number mean: 0.00686015 max: 0.539353
deltaT = 0.00229644
Time = 0.0931107

PIMPLE: iteration 1
smoothSolver:  Solving for alpha.water, Initial residual = 0.00336527, Final residual = 2.69163e-09, No Iterations 3
Phase-1 volume fraction = 0.130194  Min(alpha.water) = -2.47324e-13  Max(alpha.water) = 1
MULES: Correcting alpha.water
MULES: Correcting alpha.water
Phase-1 volume fraction = 0.130194  Min(alpha.water) = -2.28647e-08  Max(alpha.water) = 1
DICPCG:  Solving for p_rgh, Initial residual = 0.0350866, Final residual = 0.000499029, No Iterations 1
time step continuity errors : sum local = 0.000498885, global = -6.11083e-08, cumulative = 0.000445118
DICPCG:  Solving for p_rgh, Initial residual = 0.000558277, Final residual = 2.3614e-05, No Iterations 12
time step continuity errors : sum local = 2.28611e-05, global = 3.72986e-06, cumulative = 0.000448848
DICPCG:  Solving for p_rgh, Initial residual = 6.06942e-05, Final residual = 9.24372e-08, No Iterations 46
time step continuity errors : sum local = 9.03058e-08, global = -6.94455e-09, cumulative = 0.000448841
ExecutionTime = 0.32 s  ClockTime = 1 s

Courant Number mean: 0.0835127 max: 1.04925
Interface Courant Number mean: 0.00742619 max: 0.755625
deltaT = 0.00229644
Time = 0.0954071

PIMPLE: iteration 1
smoothSolver:  Solving for alpha.water, Initial residual = 0.00345611, Final residual = 2.99818e-09, No Iterations 3
Phase-1 volume fraction = 0.130194  Min(alpha.water) = -2.85588e-14  Max(alpha.water) = 1
MULES: Correcting alpha.water
MULES: Correcting alpha.water
Phase-1 volume fraction = 0.130194  Min(alpha.water) = -4.37013e-08  Max(alpha.water) = 1
DICPCG:  Solving for p_rgh, Initial residual = 0.0382487, Final residual = 0.000537857, No Iterations 1
time step continuity errors : sum local = 0.00053977, global = -3.00234e-08, cumulative = 0.000448811
DICPCG:  Solving for p_rgh, Initial residual = 0.00060325, Final residual = 2.28789e-05, No Iterations 12
time step continuity errors : sum local = 2.21706e-05, global = 3.68709e-06, cumulative = 0.000452498
DICPCG:  Solving for p_rgh, Initial residual = 6.50548e-05, Final residual = 9.19796e-08, No Iterations 46
time step continuity errors : sum local = 8.99723e-08, global = -2.92571e-09, cumulative = 0.000452495
ExecutionTime = 0.33 s  ClockTime = 1 s

Courant Number mean: 0.0852598 max: 1.11074
Interface Courant Number mean: 0.00766504 max: 0.916449
deltaT = 0.00229644
Time = 0.0977036

PIMPLE: iteration 1
smoothSolver:  Solving for alpha.water, Initial residual = 0.00355282, Final residual = 3.49132e-09, No Iterations 3
Phase-1 volume fraction = 0.130194  Min(alpha.water) = -1.66407e-14  Max(alpha.water) = 1
MULES: Correcting alpha.water
MULES: Correcting alpha.water
Phase-1 volume fraction = 0.130194  Min(alpha.water) = -3.28679e-09  Max(alpha.water) = 1
DICPCG:  Solving for p_rgh, Initial residual = 0.0359225, Final residual = 0.000747224, No Iterations 1
time step continuity errors : sum local = 0.000709736, global = -1.36265e-08, cumulative = 0.000452482
DICPCG:  Solving for p_rgh, Initial residual = 0.000828252, Final residual = 3.11264e-05, No Iterations 12
time step continuity errors : sum local = 2.8605e-05, global = 5.10193e-06, cumulative = 0.000457584
DICPCG:  Solving for p_rgh, Initial residual = 9.21608e-05, Final residual = 7.41563e-08, No Iterations 48
time step continuity errors : sum local = 6.88147e-08, global = -5.58731e-10, cumulative = 0.000457583
ExecutionTime = 0.34 s  ClockTime = 1 s

Courant Number mean: 0.0870388 max: 1.15321
Interface Courant Number mean: 0.0078046 max: 1.01443
deltaT = 0.00229644
Time = 0.1

PIMPLE: iteration 1
smoothSolver:  Solving for alpha.water, Initial residual = 0.0036489, Final residual = 3.96886e-09, No Iterations 3
Phase-1 volume fraction = 0.130194  Min(alpha.water) = -5.30402e-15  Max(alpha.water) = 1
MULES: Correcting alpha.water
MULES: Correcting alpha.water
Phase-1 volume fraction = 0.130194  Min(alpha.water) = -8.63414e-10  Max(alpha.water) = 1
DICPCG:  Solving for p_rgh, Initial residual = 0.0326682, Final residual = 0.00085261, No Iterations 1
time step continuity errors : sum local = 0.000768615, global = -3.14435e-08, cumulative = 0.000457552
DICPCG:  Solving for p_rgh, Initial residual = 0.000945237, Final residual = 3.5423e-05, No Iterations 12
time step continuity errors : sum local = 3.10278e-05, global = 5.60152e-06, cumulative = 0.000463153
DICPCG:  Solving for p_rgh, Initial residual = 0.00010456, Final residual = 8.48028e-08, No Iterations 48
time step continuity errors : sum local = 7.50375e-08, global = -1.75062e-09, cumulative = 0.000463151
ExecutionTime = 0.37 s  ClockTime = 1 s

Courant Number mean: 0.0888995 max: 1.17817
Interface Courant Number mean: 0.00827956 max: 1.00621
deltaT = 0.00192308
Time = 0.101923

PIMPLE: iteration 1
smoothSolver:  Solving for alpha.water, Initial residual = 0.00312927, Final residual = 1.64656e-09, No Iterations 3
Phase-1 volume fraction = 0.130194  Min(alpha.water) = -2.75977e-15  Max(alpha.water) = 1
MULES: Correcting alpha.water
MULES: Correcting alpha.water
Phase-1 volume fraction = 0.130194  Min(alpha.water) = -3.5461e-12  Max(alpha.water) = 1
DICPCG:  Solving for p_rgh, Initial residual = 0.027289, Final residual = 0.00067247, No Iterations 1
time step continuity errors : sum local = 0.000428571, global = -4.07089e-08, cumulative = 0.000463111
DICPCG:  Solving for p_rgh, Initial residual = 0.000739212, Final residual = 3.45307e-05, No Iterations 11
time step continuity errors : sum local = 2.15064e-05, global = 3.32818e-06, cumulative = 0.000466439
DICPCG:  Solving for p_rgh, Initial residual = 7.71927e-05, Final residual = 9.97636e-08, No Iterations 46
time step continuity errors : sum local = 6.2682e-08, global = -4.05935e-09, cumulative = 0.000466435
ExecutionTime = 0.39 s  ClockTime = 1 s

Courant Number mean: 0.0756577 max: 0.986129
Interface Courant Number mean: 0.00733066 max: 0.912074
deltaT = 0.00192308
Time = 0.103846

PIMPLE: iteration 1
smoothSolver:  Solving for alpha.water, Initial residual = 0.00317219, Final residual = 1.75591e-09, No Iterations 3
Phase-1 volume fraction = 0.130194  Min(alpha.water) = -2.38173e-15  Max(alpha.water) = 1
MULES: Correcting alpha.water
MULES: Correcting alpha.water
Phase-1 volume fraction = 0.130194  Min(alpha.water) = -8.43451e-12  Max(alpha.water) = 1
DICPCG:  Solving for p_rgh, Initial residual = 0.027193, Final residual = 0.000641921, No Iterations 1
time step continuity errors : sum local = 0.000410845, global = -3.1531e-08, cumulative = 0.000466403
DICPCG:  Solving for p_rgh, Initial residual = 0.00070925, Final residual = 3.43822e-05, No Iterations 11
time step continuity errors : sum local = 2.15055e-05, global = 3.25931e-06, cumulative = 0.000469663
DICPCG:  Solving for p_rgh, Initial residual = 7.21803e-05, Final residual = 7.79607e-08, No Iterations 45
time step continuity errors : sum local = 4.91589e-08, global = -6.57681e-09, cumulative = 0.000469656
ExecutionTime = 0.4 s  ClockTime = 1 s

Courant Number mean: 0.0767749 max: 0.988835
Interface Courant Number mean: 0.00698698 max: 0.911874
deltaT = 0.00192308
Time = 0.105769

PIMPLE: iteration 1
smoothSolver:  Solving for alpha.water, Initial residual = 0.00322607, Final residual = 1.92091e-09, No Iterations 3
Phase-1 volume fraction = 0.130194  Min(alpha.water) = -2.01011e-15  Max(alpha.water) = 1
MULES: Correcting alpha.water
MULES: Correcting alpha.water
Phase-1 volume fraction = 0.130194  Min(alpha.water) = -1.1016e-10  Max(alpha.water) = 1
DICPCG:  Solving for p_rgh, Initial residual = 0.0265663, Final residual = 0.000658001, No Iterations 1
time step continuity errors : sum local = 0.000422524, global = -3.99515e-08, cumulative = 0.000469616
DICPCG:  Solving for p_rgh, Initial residual = 0.000731468, Final residual = 2.41724e-05, No Iterations 12
time step continuity errors : sum local = 1.518e-05, global = 3.16603e-06, cumulative = 0.000472782
DICPCG:  Solving for p_rgh, Initial residual = 7.15669e-05, Final residual = 8.49051e-08, No Iterations 45
time step continuity errors : sum local = 5.37634e-08, global = -7.0158e-09, cumulative = 0.000472775
ExecutionTime = 0.4 s  ClockTime = 1 s

Courant Number mean: 0.0778715 max: 0.992123
Interface Courant Number mean: 0.00693087 max: 0.915823
deltaT = 0.00192308
Time = 0.107692

PIMPLE: iteration 1
smoothSolver:  Solving for alpha.water, Initial residual = 0.00330075, Final residual = 2.02856e-09, No Iterations 3
Phase-1 volume fraction = 0.130194  Min(alpha.water) = -1.63799e-15  Max(alpha.water) = 1
MULES: Correcting alpha.water
MULES: Correcting alpha.water
Phase-1 volume fraction = 0.130194  Min(alpha.water) = -5.76024e-10  Max(alpha.water) = 1
DICPCG:  Solving for p_rgh, Initial residual = 0.0272151, Final residual = 0.000661554, No Iterations 1
time step continuity errors : sum local = 0.000435112, global = -3.12165e-08, cumulative = 0.000472744
DICPCG:  Solving for p_rgh, Initial residual = 0.000740001, Final residual = 2.52134e-05, No Iterations 12
time step continuity errors : sum local = 1.6218e-05, global = 3.20169e-06, cumulative = 0.000475946
DICPCG:  Solving for p_rgh, Initial residual = 7.57807e-05, Final residual = 8.17132e-08, No Iterations 46
time step continuity errors : sum local = 5.2995e-08, global = -4.9893e-09, cumulative = 0.000475941
ExecutionTime = 0.42 s  ClockTime = 1 s

Courant Number mean: 0.0789702 max: 0.998528
Interface Courant Number mean: 0.00713358 max: 0.998528
deltaT = 0.00192308
Time = 0.109615

PIMPLE: iteration 1
smoothSolver:  Solving for alpha.water, Initial residual = 0.00336186, Final residual = 2.2522e-09, No Iterations 3
Phase-1 volume fraction = 0.130194  Min(alpha.water) = -1.46304e-15  Max(alpha.water) = 1
MULES: Correcting alpha.water
MULES: Correcting alpha.water
Phase-1 volume fraction = 0.130194  Min(alpha.water) = -2.62223e-10  Max(alpha.water) = 1
DICPCG:  Solving for p_rgh, Initial residual = 0.0276362, Final residual = 0.00057716, No Iterations 1
time step continuity errors : sum local = 0.000395781, global = -2.75617e-08, cumulative = 0.000475913
DICPCG:  Solving for p_rgh, Initial residual = 0.000649834, Final residual = 3.24724e-05, No Iterations 11
time step continuity errors : sum local = 2.17421e-05, global = 2.67542e-06, cumulative = 0.000478588
DICPCG:  Solving for p_rgh, Initial residual = 7.82764e-05, Final residual = 8.4504e-08, No Iterations 45
time step continuity errors : sum local = 5.70119e-08, global = -5.18432e-09, cumulative = 0.000478583
ExecutionTime = 0.42 s  ClockTime = 1 s

Courant Number mean: 0.0801173 max: 1.01008
Interface Courant Number mean: 0.00753751 max: 1.01008
deltaT = 0.00192308
Time = 0.111538

PIMPLE: iteration 1
smoothSolver:  Solving for alpha.water, Initial residual = 0.00341658, Final residual = 2.53666e-09, No Iterations 3
Phase-1 volume fraction = 0.130194  Min(alpha.water) = -1.31362e-15  Max(alpha.water) = 1
MULES: Correcting alpha.water
MULES: Correcting alpha.water
Phase-1 volume fraction = 0.130194  Min(alpha.water) = -5.8974e-09  Max(alpha.water) = 1
DICPCG:  Solving for p_rgh, Initial residual = 0.0340041, Final residual = 0.000564895, No Iterations 1
time step continuity errors : sum local = 0.000413695, global = -2.05979e-08, cumulative = 0.000478563
DICPCG:  Solving for p_rgh, Initial residual = 0.000638378, Final residual = 2.62266e-05, No Iterations 12
time step continuity errors : sum local = 1.86055e-05, global = 2.45362e-06, cumulative = 0.000481016
DICPCG:  Solving for p_rgh, Initial residual = 7.61067e-05, Final residual = 9.32267e-08, No Iterations 45
time step continuity errors : sum local = 6.66305e-08, global = -4.28824e-09, cumulative = 0.000481012
ExecutionTime = 0.44 s  ClockTime = 1 s

Courant Number mean: 0.081341 max: 1.0288
Interface Courant Number mean: 0.00756984 max: 1.0288
deltaT = 0.0018315
Time = 0.11337

PIMPLE: iteration 1
smoothSolver:  Solving for alpha.water, Initial residual = 0.00328408, Final residual = 2.06924e-09, No Iterations 3
Phase-1 volume fraction = 0.130194  Min(alpha.water) = -1.19521e-15  Max(alpha.water) = 1
MULES: Correcting alpha.water
MULES: Correcting alpha.water
Phase-1 volume fraction = 0.130194  Min(alpha.water) = -1.46928e-09  Max(alpha.water) = 1
DICPCG:  Solving for p_rgh, Initial residual = 0.0304583, Final residual = 0.000616303, No Iterations 1
time step continuity errors : sum local = 0.000390753, global = -1.34086e-08, cumulative = 0.000480999
DICPCG:  Solving for p_rgh, Initial residual = 0.000689534, Final residual = 2.63595e-05, No Iterations 12
time step continuity errors : sum local = 1.6269e-05, global = 2.77967e-06, cumulative = 0.000483778
DICPCG:  Solving for p_rgh, Initial residual = 7.51563e-05, Final residual = 8.68788e-08, No Iterations 45
time step continuity errors : sum local = 5.40149e-08, global = -4.45284e-09, cumulative = 0.000483774
ExecutionTime = 0.45 s  ClockTime = 1 s

Courant Number mean: 0.0785246 max: 1.00225
Interface Courant Number mean: 0.00673952 max: 1.00225
deltaT = 0.0018315
Time = 0.115201

PIMPLE: iteration 1
smoothSolver:  Solving for alpha.water, Initial residual = 0.00335054, Final residual = 2.11521e-09, No Iterations 3
Phase-1 volume fraction = 0.130194  Min(alpha.water) = -1.08068e-15  Max(alpha.water) = 1
MULES: Correcting alpha.water
MULES: Correcting alpha.water
Phase-1 volume fraction = 0.130194  Min(alpha.water) = -1.84081e-09  Max(alpha.water) = 1
DICPCG:  Solving for p_rgh, Initial residual = 0.0296641, Final residual = 0.000560947, No Iterations 1
time step continuity errors : sum local = 0.000348763, global = -2.57076e-08, cumulative = 0.000483748
DICPCG:  Solving for p_rgh, Initial residual = 0.000635379, Final residual = 2.56488e-05, No Iterations 12
time step continuity errors : sum local = 1.55369e-05, global = 2.31939e-06, cumulative = 0.000486068
DICPCG:  Solving for p_rgh, Initial residual = 7.29178e-05, Final residual = 8.6523e-08, No Iterations 44
time step continuity errors : sum local = 5.28047e-08, global = -5.46737e-09, cumulative = 0.000486062
ExecutionTime = 0.46 s  ClockTime = 1 s

Courant Number mean: 0.0795497 max: 1.03112
Interface Courant Number mean: 0.00690291 max: 1.03112
deltaT = 0.00173993
Time = 0.116941

PIMPLE: iteration 1
smoothSolver:  Solving for alpha.water, Initial residual = 0.00323232, Final residual = 1.67305e-09, No Iterations 3
Phase-1 volume fraction = 0.130194  Min(alpha.water) = -9.8194e-16  Max(alpha.water) = 1
MULES: Correcting alpha.water
MULES: Correcting alpha.water
Phase-1 volume fraction = 0.130194  Min(alpha.water) = -9.88871e-10  Max(alpha.water) = 1
DICPCG:  Solving for p_rgh, Initial residual = 0.027269, Final residual = 0.000511091, No Iterations 1
time step continuity errors : sum local = 0.00028341, global = -2.3723e-08, cumulative = 0.000486038
DICPCG:  Solving for p_rgh, Initial residual = 0.000580958, Final residual = 2.24802e-05, No Iterations 12
time step continuity errors : sum local = 1.21639e-05, global = 1.95527e-06, cumulative = 0.000487994
DICPCG:  Solving for p_rgh, Initial residual = 6.31588e-05, Final residual = 9.69148e-08, No Iterations 44
time step continuity errors : sum local = 5.28405e-08, global = -1.92646e-09, cumulative = 0.000487992
ExecutionTime = 0.47 s  ClockTime = 1 s

Courant Number mean: 0.0764071 max: 1.00908
Interface Courant Number mean: 0.00673902 max: 1.00908
deltaT = 0.00173993
Time = 0.118681

PIMPLE: iteration 1
smoothSolver:  Solving for alpha.water, Initial residual = 0.00327456, Final residual = 1.74744e-09, No Iterations 3
Phase-1 volume fraction = 0.130194  Min(alpha.water) = -8.86978e-16  Max(alpha.water) = 1
MULES: Correcting alpha.water
MULES: Correcting alpha.water
Phase-1 volume fraction = 0.130194  Min(alpha.water) = -5.37782e-12  Max(alpha.water) = 1
DICPCG:  Solving for p_rgh, Initial residual = 0.0249697, Final residual = 0.000579189, No Iterations 1
time step continuity errors : sum local = 0.000313407, global = -1.7167e-08, cumulative = 0.000487974
DICPCG:  Solving for p_rgh, Initial residual = 0.000656961, Final residual = 2.71865e-05, No Iterations 12
time step continuity errors : sum local = 1.43957e-05, global = 1.97888e-06, cumulative = 0.000489953
DICPCG:  Solving for p_rgh, Initial residual = 7.50193e-05, Final residual = 9.93215e-08, No Iterations 41
time step continuity errors : sum local = 5.30106e-08, global = -4.61184e-09, cumulative = 0.000489949
ExecutionTime = 0.48 s  ClockTime = 1 s

Courant Number mean: 0.0772274 max: 1.04102
Interface Courant Number mean: 0.00713212 max: 1.04102
deltaT = 0.00164835
Time = 0.12033

PIMPLE: iteration 1
smoothSolver:  Solving for alpha.water, Initial residual = 0.0031356, Final residual = 1.30194e-09, No Iterations 3
Phase-1 volume fraction = 0.130194  Min(alpha.water) = -8.07411e-16  Max(alpha.water) = 1
MULES: Correcting alpha.water
MULES: Correcting alpha.water
Phase-1 volume fraction = 0.130194  Min(alpha.water) = -4.72423e-12  Max(alpha.water) = 1
DICPCG:  Solving for p_rgh, Initial residual = 0.0234059, Final residual = 0.000592784, No Iterations 1
time step continuity errors : sum local = 0.000288276, global = -2.43684e-08, cumulative = 0.000489924
DICPCG:  Solving for p_rgh, Initial residual = 0.000667009, Final residual = 2.56842e-05, No Iterations 12
time step continuity errors : sum local = 1.22497e-05, global = 1.76783e-06, cumulative = 0.000491692
DICPCG:  Solving for p_rgh, Initial residual = 7.14585e-05, Final residual = 8.30128e-08, No Iterations 44
time step continuity errors : sum local = 3.99049e-08, global = -3.45641e-09, cumulative = 0.000491689
ExecutionTime = 0.49 s  ClockTime = 1 s

Courant Number mean: 0.0739089 max: 1.01381
Interface Courant Number mean: 0.00646805 max: 1.01381
deltaT = 0.00164835
Time = 0.121978

PIMPLE: iteration 1
smoothSolver:  Solving for alpha.water, Initial residual = 0.00314981, Final residual = 1.31546e-09, No Iterations 3
Phase-1 volume fraction = 0.130194  Min(alpha.water) = -7.33305e-16  Max(alpha.water) = 1
MULES: Correcting alpha.water
MULES: Correcting alpha.water
Phase-1 volume fraction = 0.130194  Min(alpha.water) = -4.8298e-12  Max(alpha.water) = 1
DICPCG:  Solving for p_rgh, Initial residual = 0.0227808, Final residual = 0.000639642, No Iterations 1
time step continuity errors : sum local = 0.000311623, global = -1.51906e-08, cumulative = 0.000491674
DICPCG:  Solving for p_rgh, Initial residual = 0.000723906, Final residual = 2.90697e-05, No Iterations 12
time step continuity errors : sum local = 1.39215e-05, global = 1.73013e-06, cumulative = 0.000493404
DICPCG:  Solving for p_rgh, Initial residual = 8.11998e-05, Final residual = 8.19541e-08, No Iterations 44
time step continuity errors : sum local = 3.95745e-08, global = -3.05178e-09, cumulative = 0.000493401
ExecutionTime = 0.5 s  ClockTime = 1 s

Courant Number mean: 0.0747037 max: 1.04412
Interface Courant Number mean: 0.0065845 max: 1.04412
deltaT = 0.00155678
Time = 0.123535

PIMPLE: iteration 1
smoothSolver:  Solving for alpha.water, Initial residual = 0.00303387, Final residual = 9.30922e-10, No Iterations 3
Phase-1 volume fraction = 0.130194  Min(alpha.water) = -6.73197e-16  Max(alpha.water) = 1
MULES: Correcting alpha.water
MULES: Correcting alpha.water
Phase-1 volume fraction = 0.130194  Min(alpha.water) = -3.24159e-12  Max(alpha.water) = 1
DICPCG:  Solving for p_rgh, Initial residual = 0.0224785, Final residual = 0.000597488, No Iterations 1
time step continuity errors : sum local = 0.000267622, global = -1.27207e-08, cumulative = 0.000493388
DICPCG:  Solving for p_rgh, Initial residual = 0.00069003, Final residual = 3.4155e-05, No Iterations 11
time step continuity errors : sum local = 1.50381e-05, global = 1.12992e-06, cumulative = 0.000494518
DICPCG:  Solving for p_rgh, Initial residual = 8.25536e-05, Final residual = 9.80462e-08, No Iterations 43
time step continuity errors : sum local = 4.34982e-08, global = -1.38381e-09, cumulative = 0.000494516
ExecutionTime = 0.52 s  ClockTime = 1 s

Courant Number mean: 0.0712795 max: 1.01541
Interface Courant Number mean: 0.00608804 max: 1.01541
deltaT = 0.00155678
Time = 0.125092

PIMPLE: iteration 1
smoothSolver:  Solving for alpha.water, Initial residual = 0.00306688, Final residual = 9.46175e-10, No Iterations 3
Phase-1 volume fraction = 0.130194  Min(alpha.water) = -6.19695e-16  Max(alpha.water) = 1
MULES: Correcting alpha.water
MULES: Correcting alpha.water
Phase-1 volume fraction = 0.130194  Min(alpha.water) = -8.13503e-11  Max(alpha.water) = 1
DICPCG:  Solving for p_rgh, Initial residual = 0.0224001, Final residual = 0.000612222, No Iterations 1
time step continuity errors : sum local = 0.000280279, global = -5.47523e-09, cumulative = 0.000494511
DICPCG:  Solving for p_rgh, Initial residual = 0.000717788, Final residual = 3.46463e-05, No Iterations 9
time step continuity errors : sum local = 1.56062e-05, global = 2.91441e-07, cumulative = 0.000494802
DICPCG:  Solving for p_rgh, Initial residual = 8.59153e-05, Final residual = 8.70854e-08, No Iterations 43
time step continuity errors : sum local = 3.94877e-08, global = 2.12843e-09, cumulative = 0.000494805
ExecutionTime = 0.53 s  ClockTime = 1 s

Courant Number mean: 0.0720255 max: 1.04841
Interface Courant Number mean: 0.00612963 max: 1.04841
deltaT = 0.0014652
Time = 0.126557

PIMPLE: iteration 1
smoothSolver:  Solving for alpha.water, Initial residual = 0.00292899, Final residual = 6.78322e-10, No Iterations 3
Phase-1 volume fraction = 0.130194  Min(alpha.water) = -5.75013e-16  Max(alpha.water) = 1
MULES: Correcting alpha.water
MULES: Correcting alpha.water
Phase-1 volume fraction = 0.130194  Min(alpha.water) = -7.02511e-10  Max(alpha.water) = 1
DICPCG:  Solving for p_rgh, Initial residual = 0.0222653, Final residual = 0.000449174, No Iterations 1
time step continuity errors : sum local = 0.000193351, global = 4.83808e-09, cumulative = 0.000494809
DICPCG:  Solving for p_rgh, Initial residual = 0.000531229, Final residual = 2.63634e-05, No Iterations 11
time step continuity errors : sum local = 1.11487e-05, global = 6.00599e-07, cumulative = 0.00049541
DICPCG:  Solving for p_rgh, Initial residual = 7.02769e-05, Final residual = 8.75655e-08, No Iterations 43
time step continuity errors : sum local = 3.73177e-08, global = 8.85671e-10, cumulative = 0.000495411
ExecutionTime = 0.54 s  ClockTime = 1 s

Courant Number mean: 0.0684251 max: 1.01169
Interface Courant Number mean: 0.00575961 max: 1.01169
deltaT = 0.0014652
Time = 0.128022

PIMPLE: iteration 1
smoothSolver:  Solving for alpha.water, Initial residual = 0.00296797, Final residual = 6.90545e-10, No Iterations 3
Phase-1 volume fraction = 0.130194  Min(alpha.water) = -5.33394e-16  Max(alpha.water) = 1
MULES: Correcting alpha.water
MULES: Correcting alpha.water
Phase-1 volume fraction = 0.130194  Min(alpha.water) = -2.43652e-10  Max(alpha.water) = 1
DICPCG:  Solving for p_rgh, Initial residual = 0.0255413, Final residual = 0.000426589, No Iterations 1
time step continuity errors : sum local = 0.000189797, global = -3.35957e-09, cumulative = 0.000495408
DICPCG:  Solving for p_rgh, Initial residual = 0.000509364, Final residual = 2.03846e-05, No Iterations 13
time step continuity errors : sum local = 8.88014e-06, global = 8.88102e-07, cumulative = 0.000496296
DICPCG:  Solving for p_rgh, Initial residual = 7.17254e-05, Final residual = 9.89331e-08, No Iterations 44
time step continuity errors : sum local = 4.35145e-08, global = 2.79147e-09, cumulative = 0.000496298
ExecutionTime = 0.55 s  ClockTime = 1 s

Courant Number mean: 0.0690136 max: 1.02488
Interface Courant Number mean: 0.00577568 max: 1.02488
deltaT = 0.0014652
Time = 0.129487

PIMPLE: iteration 1
smoothSolver:  Solving for alpha.water, Initial residual = 0.00299121, Final residual = 7.01117e-10, No Iterations 3
Phase-1 volume fraction = 0.130194  Min(alpha.water) = -4.94652e-16  Max(alpha.water) = 1
MULES: Correcting alpha.water
MULES: Correcting alpha.water
Phase-1 volume fraction = 0.130194  Min(alpha.water) = -2.42941e-10  Max(alpha.water) = 1
DICPCG:  Solving for p_rgh, Initial residual = 0.0236663, Final residual = 0.000458031, No Iterations 1
time step continuity errors : sum local = 0.000198486, global = -3.71463e-09, cumulative = 0.000496295
DICPCG:  Solving for p_rgh, Initial residual = 0.000543892, Final residual = 2.16585e-05, No Iterations 13
time step continuity errors : sum local = 9.20761e-06, global = 8.45577e-07, cumulative = 0.00049714
DICPCG:  Solving for p_rgh, Initial residual = 8.46775e-05, Final residual = 9.40677e-08, No Iterations 43
time step continuity errors : sum local = 4.04331e-08, global = 6.63561e-09, cumulative = 0.000497147
ExecutionTime = 0.56 s  ClockTime = 1 s

Courant Number mean: 0.0695858 max: 1.0211
Interface Courant Number mean: 0.00564996 max: 1.0211
deltaT = 0.0014652
Time = 0.130952

PIMPLE: iteration 1
smoothSolver:  Solving for alpha.water, Initial residual = 0.00304405, Final residual = 6.98626e-10, No Iterations 3
Phase-1 volume fraction = 0.130194  Min(alpha.water) = -4.58666e-16  Max(alpha.water) = 1
MULES: Correcting alpha.water
MULES: Correcting alpha.water
Phase-1 volume fraction = 0.130194  Min(alpha.water) = -2.52086e-10  Max(alpha.water) = 1
DICPCG:  Solving for p_rgh, Initial residual = 0.0234612, Final residual = 0.000504277, No Iterations 1
time step continuity errors : sum local = 0.000214894, global = 4.97427e-09, cumulative = 0.000497152
DICPCG:  Solving for p_rgh, Initial residual = 0.000598414, Final residual = 2.4545e-05, No Iterations 13
time step continuity errors : sum local = 1.02615e-05, global = 8.89839e-07, cumulative = 0.000498042
DICPCG:  Solving for p_rgh, Initial residual = 9.94136e-05, Final residual = 8.30285e-08, No Iterations 49
time step continuity errors : sum local = 3.50637e-08, global = -1.26838e-09, cumulative = 0.00049804
ExecutionTime = 0.57 s  ClockTime = 1 s

Courant Number mean: 0.0701587 max: 0.991165
Interface Courant Number mean: 0.00582018 max: 0.991165
deltaT = 0.0014652
Time = 0.132418

PIMPLE: iteration 1
smoothSolver:  Solving for alpha.water, Initial residual = 0.00307212, Final residual = 6.87302e-10, No Iterations 3
Phase-1 volume fraction = 0.130194  Min(alpha.water) = -4.25315e-16  Max(alpha.water) = 1
MULES: Correcting alpha.water
MULES: Correcting alpha.water
Phase-1 volume fraction = 0.130194  Min(alpha.water) = -6.80776e-11  Max(alpha.water) = 1
DICPCG:  Solving for p_rgh, Initial residual = 0.0213061, Final residual = 0.000573186, No Iterations 1
time step continuity errors : sum local = 0.000239336, global = -1.48403e-08, cumulative = 0.000498026
DICPCG:  Solving for p_rgh, Initial residual = 0.000675438, Final residual = 3.20902e-05, No Iterations 13
time step continuity errors : sum local = 1.31705e-05, global = 8.51129e-07, cumulative = 0.000498877
DICPCG:  Solving for p_rgh, Initial residual = 0.000110692, Final residual = 6.56199e-08, No Iterations 44
time step continuity errors : sum local = 2.7217e-08, global = 3.84594e-09, cumulative = 0.000498881
ExecutionTime = 0.58 s  ClockTime = 1 s

Courant Number mean: 0.0707634 max: 0.939211
Interface Courant Number mean: 0.00670984 max: 0.939211
deltaT = 0.0015984
Time = 0.134016

PIMPLE: iteration 1
smoothSolver:  Solving for alpha.water, Initial residual = 0.00338314, Final residual = 1.12114e-09, No Iterations 3
Phase-1 volume fraction = 0.130194  Min(alpha.water) = -3.91126e-16  Max(alpha.water) = 1
MULES: Correcting alpha.water
MULES: Correcting alpha.water
Phase-1 volume fraction = 0.130194  Min(alpha.water) = -1.20181e-10  Max(alpha.water) = 1
DICPCG:  Solving for p_rgh, Initial residual = 0.022026, Final residual = 0.000673112, No Iterations 1
time step continuity errors : sum local = 0.000329146, global = 6.93921e-09, cumulative = 0.000498888
DICPCG:  Solving for p_rgh, Initial residual = 0.000776169, Final residual = 3.81329e-05, No Iterations 13
time step continuity errors : sum local = 1.83673e-05, global = 1.1463e-06, cumulative = 0.000500034
DICPCG:  Solving for p_rgh, Initial residual = 0.000132339, Final residual = 8.67026e-08, No Iterations 39
time step continuity errors : sum local = 4.23622e-08, global = 7.70503e-09, cumulative = 0.000500042
ExecutionTime = 0.59 s  ClockTime = 1 s

Courant Number mean: 0.0779458 max: 0.961053
Interface Courant Number mean: 0.00683111 max: 0.961053
deltaT = 0.0015984
Time = 0.135614

PIMPLE: iteration 1
smoothSolver:  Solving for alpha.water, Initial residual = 0.00343748, Final residual = 1.1128e-09, No Iterations 3
Phase-1 volume fraction = 0.130194  Min(alpha.water) = -3.59894e-16  Max(alpha.water) = 1
MULES: Correcting alpha.water
MULES: Correcting alpha.water
Phase-1 volume fraction = 0.130194  Min(alpha.water) = -1.13739e-10  Max(alpha.water) = 1
DICPCG:  Solving for p_rgh, Initial residual = 0.021832, Final residual = 0.000640559, No Iterations 1
time step continuity errors : sum local = 0.00031644, global = 4.84766e-09, cumulative = 0.000500046
DICPCG:  Solving for p_rgh, Initial residual = 0.000754573, Final residual = 3.67086e-05, No Iterations 11
time step continuity errors : sum local = 1.78651e-05, global = 6.67943e-07, cumulative = 0.000500714
DICPCG:  Solving for p_rgh, Initial residual = 0.00012189, Final residual = 8.66963e-08, No Iterations 44
time step continuity errors : sum local = 4.26922e-08, global = 2.84079e-09, cumulative = 0.000500717
ExecutionTime = 0.6 s  ClockTime = 1 s

Courant Number mean: 0.0785987 max: 0.916744
Interface Courant Number mean: 0.00665712 max: 0.916744
deltaT = 0.0017982
Time = 0.137413

PIMPLE: iteration 1
smoothSolver:  Solving for alpha.water, Initial residual = 0.00387705, Final residual = 2.24038e-09, No Iterations 3
Phase-1 volume fraction = 0.130194  Min(alpha.water) = -3.24958e-16  Max(alpha.water) = 1
MULES: Correcting alpha.water
MULES: Correcting alpha.water
Phase-1 volume fraction = 0.130194  Min(alpha.water) = -1.19454e-10  Max(alpha.water) = 1
DICPCG:  Solving for p_rgh, Initial residual = 0.0233219, Final residual = 0.000655329, No Iterations 1
time step continuity errors : sum local = 0.000410815, global = -7.06629e-09, cumulative = 0.00050071
DICPCG:  Solving for p_rgh, Initial residual = 0.00079044, Final residual = 2.6955e-05, No Iterations 14
time step continuity errors : sum local = 1.66248e-05, global = 1.61936e-06, cumulative = 0.000502329
DICPCG:  Solving for p_rgh, Initial residual = 0.000118759, Final residual = 7.93158e-08, No Iterations 49
time step continuity errors : sum local = 4.97312e-08, global = -9.46915e-10, cumulative = 0.000502329
ExecutionTime = 0.62 s  ClockTime = 1 s

Courant Number mean: 0.089187 max: 1.01732
Interface Courant Number mean: 0.00799058 max: 1.01281
deltaT = 0.0017982
Time = 0.139211

PIMPLE: iteration 1
smoothSolver:  Solving for alpha.water, Initial residual = 0.00394465, Final residual = 2.27317e-09, No Iterations 3
Phase-1 volume fraction = 0.130194  Min(alpha.water) = -2.92618e-16  Max(alpha.water) = 1
MULES: Correcting alpha.water
MULES: Correcting alpha.water
Phase-1 volume fraction = 0.130194  Min(alpha.water) = -2.79863e-11  Max(alpha.water) = 1
DICPCG:  Solving for p_rgh, Initial residual = 0.0231281, Final residual = 0.00064791, No Iterations 1
time step continuity errors : sum local = 0.00041564, global = -2.36765e-08, cumulative = 0.000502305
DICPCG:  Solving for p_rgh, Initial residual = 0.000755847, Final residual = 2.52014e-05, No Iterations 14
time step continuity errors : sum local = 1.59142e-05, global = 1.56055e-06, cumulative = 0.000503865
DICPCG:  Solving for p_rgh, Initial residual = 0.000115024, Final residual = 8.31548e-08, No Iterations 48
time step continuity errors : sum local = 5.34373e-08, global = -3.42877e-09, cumulative = 0.000503862
ExecutionTime = 0.63 s  ClockTime = 1 s

Courant Number mean: 0.0898039 max: 1.01976
Interface Courant Number mean: 0.00851868 max: 1.01976
deltaT = 0.0017982
Time = 0.141009

PIMPLE: iteration 1
smoothSolver:  Solving for alpha.water, Initial residual = 0.00400131, Final residual = 2.31313e-09, No Iterations 3
Phase-1 volume fraction = 0.130194  Min(alpha.water) = -2.62369e-16  Max(alpha.water) = 1
MULES: Correcting alpha.water
MULES: Correcting alpha.water
Phase-1 volume fraction = 0.130194  Min(alpha.water) = -8.24725e-12  Max(alpha.water) = 1
DICPCG:  Solving for p_rgh, Initial residual = 0.0227667, Final residual = 0.00061457, No Iterations 1
time step continuity errors : sum local = 0.0004026, global = -2.42182e-08, cumulative = 0.000503838
DICPCG:  Solving for p_rgh, Initial residual = 0.000719809, Final residual = 3.31331e-05, No Iterations 13
time step continuity errors : sum local = 2.13609e-05, global = 1.82574e-06, cumulative = 0.000505663
DICPCG:  Solving for p_rgh, Initial residual = 0.00011377, Final residual = 8.05361e-08, No Iterations 49
time step continuity errors : sum local = 5.26559e-08, global = -5.872e-10, cumulative = 0.000505663
ExecutionTime = 0.64 s  ClockTime = 1 s

Courant Number mean: 0.0903481 max: 1.01483
Interface Courant Number mean: 0.00863503 max: 1.01483
deltaT = 0.0017982
Time = 0.142807

PIMPLE: iteration 1
smoothSolver:  Solving for alpha.water, Initial residual = 0.00412287, Final residual = 2.3362e-09, No Iterations 3
Phase-1 volume fraction = 0.130194  Min(alpha.water) = -2.33798e-16  Max(alpha.water) = 1
MULES: Correcting alpha.water
MULES: Correcting alpha.water
Phase-1 volume fraction = 0.130194  Min(alpha.water) = -1.62452e-11  Max(alpha.water) = 1
DICPCG:  Solving for p_rgh, Initial residual = 0.0230243, Final residual = 0.000555305, No Iterations 1
time step continuity errors : sum local = 0.00037843, global = -1.94235e-08, cumulative = 0.000505643
DICPCG:  Solving for p_rgh, Initial residual = 0.000645884, Final residual = 2.56001e-05, No Iterations 14
time step continuity errors : sum local = 1.71462e-05, global = 1.26178e-06, cumulative = 0.000506905
DICPCG:  Solving for p_rgh, Initial residual = 0.000109073, Final residual = 9.65005e-08, No Iterations 48
time step continuity errors : sum local = 6.57734e-08, global = -3.29586e-10, cumulative = 0.000506905
ExecutionTime = 0.66 s  ClockTime = 1 s

Courant Number mean: 0.0908196 max: 0.998977
Interface Courant Number mean: 0.0097416 max: 0.998977
deltaT = 0.0017982
Time = 0.144605

PIMPLE: iteration 1
smoothSolver:  Solving for alpha.water, Initial residual = 0.00417093, Final residual = 2.33046e-09, No Iterations 3
Phase-1 volume fraction = 0.130194  Min(alpha.water) = -2.08109e-16  Max(alpha.water) = 1
MULES: Correcting alpha.water
MULES: Correcting alpha.water
Phase-1 volume fraction = 0.130194  Min(alpha.water) = -3.15553e-11  Max(alpha.water) = 1
DICPCG:  Solving for p_rgh, Initial residual = 0.0251857, Final residual = 0.000553596, No Iterations 1
time step continuity errors : sum local = 0.000391339, global = -1.22374e-08, cumulative = 0.000506893
DICPCG:  Solving for p_rgh, Initial residual = 0.000653873, Final residual = 2.10102e-05, No Iterations 14
time step continuity errors : sum local = 1.45509e-05, global = 1.39902e-06, cumulative = 0.000508292
DICPCG:  Solving for p_rgh, Initial residual = 0.000102021, Final residual = 9.86541e-08, No Iterations 48
time step continuity errors : sum local = 6.93193e-08, global = -2.26999e-09, cumulative = 0.000508289
ExecutionTime = 0.67 s  ClockTime = 1 s

Courant Number mean: 0.0912705 max: 0.984034
Interface Courant Number mean: 0.00970339 max: 0.984034
deltaT = 0.0017982
Time = 0.146404

PIMPLE: iteration 1
smoothSolver:  Solving for alpha.water, Initial residual = 0.00419541, Final residual = 2.30709e-09, No Iterations 3
Phase-1 volume fraction = 0.130194  Min(alpha.water) = -1.8527e-16  Max(alpha.water) = 1
MULES: Correcting alpha.water
MULES: Correcting alpha.water
Phase-1 volume fraction = 0.130194  Min(alpha.water) = -4.11097e-09  Max(alpha.water) = 1
DICPCG:  Solving for p_rgh, Initial residual = 0.0226366, Final residual = 0.00054414, No Iterations 1
time step continuity errors : sum local = 0.000378467, global = -1.76694e-08, cumulative = 0.000508272
DICPCG:  Solving for p_rgh, Initial residual = 0.00064639, Final residual = 2.07903e-05, No Iterations 14
time step continuity errors : sum local = 1.42073e-05, global = 1.29232e-06, cumulative = 0.000509564
DICPCG:  Solving for p_rgh, Initial residual = 0.000103686, Final residual = 7.84981e-08, No Iterations 45
time step continuity errors : sum local = 5.43244e-08, global = -1.79751e-09, cumulative = 0.000509562
ExecutionTime = 0.68 s  ClockTime = 1 s

Courant Number mean: 0.0917337 max: 0.97736
Interface Courant Number mean: 0.00938625 max: 0.97736
deltaT = 0.0017982
Time = 0.148202

PIMPLE: iteration 1
smoothSolver:  Solving for alpha.water, Initial residual = 0.00428316, Final residual = 2.34057e-09, No Iterations 3
Phase-1 volume fraction = 0.130194  Min(alpha.water) = -1.65394e-16  Max(alpha.water) = 1
MULES: Correcting alpha.water
MULES: Correcting alpha.water
Phase-1 volume fraction = 0.130194  Min(alpha.water) = -4.83345e-09  Max(alpha.water) = 1
DICPCG:  Solving for p_rgh, Initial residual = 0.0214258, Final residual = 0.000569888, No Iterations 1
time step continuity errors : sum local = 0.000393765, global = -1.67463e-08, cumulative = 0.000509546
DICPCG:  Solving for p_rgh, Initial residual = 0.000679271, Final residual = 3.38595e-05, No Iterations 10
time step continuity errors : sum local = 2.30283e-05, global = 2.99157e-07, cumulative = 0.000509845
DICPCG:  Solving for p_rgh, Initial residual = 0.000114529, Final residual = 9.32786e-08, No Iterations 40
time step continuity errors : sum local = 6.42262e-08, global = -1.37334e-08, cumulative = 0.000509831
ExecutionTime = 0.69 s  ClockTime = 1 s

Courant Number mean: 0.0921022 max: 0.95799
Interface Courant Number mean: 0.00988865 max: 0.95799
deltaT = 0.0017982
Time = 0.15

PIMPLE: iteration 1
smoothSolver:  Solving for alpha.water, Initial residual = 0.00431131, Final residual = 2.36468e-09, No Iterations 3
Phase-1 volume fraction = 0.130194  Min(alpha.water) = -1.47854e-16  Max(alpha.water) = 1
MULES: Correcting alpha.water
MULES: Correcting alpha.water
Phase-1 volume fraction = 0.130194  Min(alpha.water) = -1.56766e-09  Max(alpha.water) = 1
DICPCG:  Solving for p_rgh, Initial residual = 0.0211856, Final residual = 0.000591042, No Iterations 1
time step continuity errors : sum local = 0.000410182, global = -3.11081e-08, cumulative = 0.0005098
DICPCG:  Solving for p_rgh, Initial residual = 0.000694888, Final residual = 3.3792e-05, No Iterations 9
time step continuity errors : sum local = 2.30903e-05, global = 6.89397e-08, cumulative = 0.000509869
DICPCG:  Solving for p_rgh, Initial residual = 0.000113851, Final residual = 9.50227e-08, No Iterations 43
time step continuity errors : sum local = 6.55879e-08, global = 2.37311e-09, cumulative = 0.000509871
ExecutionTime = 0.71 s  ClockTime = 1 s

Courant Number mean: 0.0924536 max: 0.963542
Interface Courant Number mean: 0.0101753 max: 0.963542
deltaT = 0.00185185
Time = 0.151852

PIMPLE: iteration 1
smoothSolver:  Solving for alpha.water, Initial residual = 0.0045244, Final residual = 2.83423e-09, No Iterations 3
Phase-1 volume fraction = 0.130194  Min(alpha.water) = -1.30937e-16  Max(alpha.water) = 1
MULES: Correcting alpha.water
MULES: Correcting alpha.water
Phase-1 volume fraction = 0.130194  Min(alpha.water) = -1.8212e-07  Max(alpha.water) = 1
DICPCG:  Solving for p_rgh, Initial residual = 0.0197444, Final residual = 0.000595166, No Iterations 1
time step continuity errors : sum local = 0.000437217, global = 1.84698e-08, cumulative = 0.00050989
DICPCG:  Solving for p_rgh, Initial residual = 0.000702953, Final residual = 3.2423e-05, No Iterations 9
time step continuity errors : sum local = 2.34615e-05, global = 7.95453e-08, cumulative = 0.000509969
DICPCG:  Solving for p_rgh, Initial residual = 0.000118075, Final residual = 7.96292e-08, No Iterations 44
time step continuity errors : sum local = 5.80573e-08, global = 3.36497e-09, cumulative = 0.000509973
ExecutionTime = 0.73 s  ClockTime = 1 s

Courant Number mean: 0.0955606 max: 0.986779
Interface Courant Number mean: 0.0106727 max: 0.986779
deltaT = 0.00185185
Time = 0.153704

PIMPLE: iteration 1
smoothSolver:  Solving for alpha.water, Initial residual = 0.00459242, Final residual = 2.91226e-09, No Iterations 3
Phase-1 volume fraction = 0.130194  Min(alpha.water) = -1.15848e-16  Max(alpha.water) = 1
MULES: Correcting alpha.water
MULES: Correcting alpha.water
Phase-1 volume fraction = 0.130194  Min(alpha.water) = -1.04158e-06  Max(alpha.water) = 1
DICPCG:  Solving for p_rgh, Initial residual = 0.0185117, Final residual = 0.000606617, No Iterations 1
time step continuity errors : sum local = 0.000445053, global = -8.21429e-10, cumulative = 0.000509972
DICPCG:  Solving for p_rgh, Initial residual = 0.000716113, Final residual = 3.0538e-05, No Iterations 8
time step continuity errors : sum local = 2.2092e-05, global = -1.2841e-08, cumulative = 0.000509959
DICPCG:  Solving for p_rgh, Initial residual = 0.000120191, Final residual = 7.75411e-08, No Iterations 48
time step continuity errors : sum local = 5.63763e-08, global = -2.29011e-09, cumulative = 0.000509957
ExecutionTime = 0.74 s  ClockTime = 1 s

Courant Number mean: 0.095971 max: 0.962388
Interface Courant Number mean: 0.0107108 max: 0.962388
deltaT = 0.00192901
Time = 0.155633

PIMPLE: iteration 1
smoothSolver:  Solving for alpha.water, Initial residual = 0.00491867, Final residual = 3.74309e-09, No Iterations 3
Phase-1 volume fraction = 0.130194  Min(alpha.water) = -1.07168e-16  Max(alpha.water) = 1
MULES: Correcting alpha.water
MULES: Correcting alpha.water
Phase-1 volume fraction = 0.130194  Min(alpha.water) = -1.67045e-06  Max(alpha.water) = 1
DICPCG:  Solving for p_rgh, Initial residual = 0.0184153, Final residual = 0.000664098, No Iterations 1
time step continuity errors : sum local = 0.000531333, global = -1.00595e-08, cumulative = 0.000509947
DICPCG:  Solving for p_rgh, Initial residual = 0.000768949, Final residual = 3.39217e-05, No Iterations 8
time step continuity errors : sum local = 2.67895e-05, global = -2.0636e-08, cumulative = 0.000509926
DICPCG:  Solving for p_rgh, Initial residual = 0.000129602, Final residual = 9.79081e-08, No Iterations 48
time step continuity errors : sum local = 7.76379e-08, global = -2.81686e-10, cumulative = 0.000509926
ExecutionTime = 0.75 s  ClockTime = 1 s

Courant Number mean: 0.100317 max: 0.970558
Interface Courant Number mean: 0.0112582 max: 0.970558
deltaT = 0.00201669
Time = 0.157649

PIMPLE: iteration 1
smoothSolver:  Solving for alpha.water, Initial residual = 0.00525014, Final residual = 4.86697e-09, No Iterations 3
Phase-1 volume fraction = 0.130194  Min(alpha.water) = -9.98293e-17  Max(alpha.water) = 1
MULES: Correcting alpha.water
MULES: Correcting alpha.water
Phase-1 volume fraction = 0.130194  Min(alpha.water) = -1.83464e-06  Max(alpha.water) = 1
DICPCG:  Solving for p_rgh, Initial residual = 0.0193766, Final residual = 0.000666581, No Iterations 1
time step continuity errors : sum local = 0.000589332, global = 7.70563e-09, cumulative = 0.000509933
DICPCG:  Solving for p_rgh, Initial residual = 0.000772685, Final residual = 3.84175e-05, No Iterations 9
time step continuity errors : sum local = 3.35574e-05, global = 5.21316e-08, cumulative = 0.000509985
DICPCG:  Solving for p_rgh, Initial residual = 0.000136645, Final residual = 6.79252e-08, No Iterations 50
time step continuity errors : sum local = 5.96641e-08, global = -3.45943e-09, cumulative = 0.000509982
ExecutionTime = 0.76 s  ClockTime = 1 s

Courant Number mean: 0.105111 max: 0.980875
Interface Courant Number mean: 0.0120733 max: 0.980875
deltaT = 0.00201669
Time = 0.159666

PIMPLE: iteration 1
smoothSolver:  Solving for alpha.water, Initial residual = 0.0052788, Final residual = 4.86123e-09, No Iterations 3
Phase-1 volume fraction = 0.130194  Min(alpha.water) = -9.27699e-17  Max(alpha.water) = 1
MULES: Correcting alpha.water
MULES: Correcting alpha.water
Phase-1 volume fraction = 0.130194  Min(alpha.water) = -4.05575e-06  Max(alpha.water) = 1
DICPCG:  Solving for p_rgh, Initial residual = 0.0210603, Final residual = 0.000611401, No Iterations 1
time step continuity errors : sum local = 0.000563842, global = 5.00866e-09, cumulative = 0.000509987
DICPCG:  Solving for p_rgh, Initial residual = 0.000712661, Final residual = 3.3754e-05, No Iterations 9
time step continuity errors : sum local = 3.07077e-05, global = 2.0724e-08, cumulative = 0.000510008
DICPCG:  Solving for p_rgh, Initial residual = 0.000129199, Final residual = 7.63436e-08, No Iterations 50
time step continuity errors : sum local = 6.99229e-08, global = -2.8345e-09, cumulative = 0.000510005
ExecutionTime = 0.78 s  ClockTime = 1 s

Courant Number mean: 0.10525 max: 0.958117
Interface Courant Number mean: 0.012593 max: 0.958117
deltaT = 0.00212284
Time = 0.161789

PIMPLE: iteration 1
smoothSolver:  Solving for alpha.water, Initial residual = 0.00560164, Final residual = 6.43782e-09, No Iterations 3
Phase-1 volume fraction = 0.130194  Min(alpha.water) = -8.56307e-17  Max(alpha.water) = 1
MULES: Correcting alpha.water
MULES: Correcting alpha.water
Phase-1 volume fraction = 0.130194  Min(alpha.water) = -3.51279e-06  Max(alpha.water) = 1
DICPCG:  Solving for p_rgh, Initial residual = 0.0234443, Final residual = 0.000578463, No Iterations 1
time step continuity errors : sum local = 0.000596071, global = 6.43228e-09, cumulative = 0.000510011
DICPCG:  Solving for p_rgh, Initial residual = 0.000688814, Final residual = 3.1376e-05, No Iterations 8
time step continuity errors : sum local = 3.17635e-05, global = -2.84701e-08, cumulative = 0.000509983
DICPCG:  Solving for p_rgh, Initial residual = 0.000134706, Final residual = 7.34692e-08, No Iterations 50
time step continuity errors : sum local = 7.48242e-08, global = -4.40734e-09, cumulative = 0.000509978
ExecutionTime = 0.79 s  ClockTime = 1 s

Courant Number mean: 0.111155 max: 1.00588
Interface Courant Number mean: 0.013519 max: 1.00588
deltaT = 0.00212284
Time = 0.163912

PIMPLE: iteration 1
smoothSolver:  Solving for alpha.water, Initial residual = 0.00562825, Final residual = 6.33917e-09, No Iterations 3
Phase-1 volume fraction = 0.130194  Min(alpha.water) = -7.88722e-17  Max(alpha.water) = 1
MULES: Correcting alpha.water
MULES: Correcting alpha.water
Phase-1 volume fraction = 0.130194  Min(alpha.water) = -1.46593e-06  Max(alpha.water) = 1
DICPCG:  Solving for p_rgh, Initial residual = 0.0206449, Final residual = 0.000570246, No Iterations 1
time step continuity errors : sum local = 0.000575957, global = 2.82487e-09, cumulative = 0.000509981
DICPCG:  Solving for p_rgh, Initial residual = 0.000692314, Final residual = 3.19002e-05, No Iterations 8
time step continuity errors : sum local = 3.17023e-05, global = -3.76708e-08, cumulative = 0.000509944
DICPCG:  Solving for p_rgh, Initial residual = 0.000142073, Final residual = 9.69753e-08, No Iterations 50
time step continuity errors : sum local = 9.66316e-08, global = -3.01472e-09, cumulative = 0.000509941
ExecutionTime = 0.8 s  ClockTime = 1 s

Courant Number mean: 0.111432 max: 0.993729
Interface Courant Number mean: 0.0137991 max: 0.993729
deltaT = 0.00212284
Time = 0.166035

PIMPLE: iteration 1
smoothSolver:  Solving for alpha.water, Initial residual = 0.00566585, Final residual = 6.30624e-09, No Iterations 3
Phase-1 volume fraction = 0.130194  Min(alpha.water) = -7.25524e-17  Max(alpha.water) = 1
MULES: Correcting alpha.water
MULES: Correcting alpha.water
Phase-1 volume fraction = 0.130194  Min(alpha.water) = -2.92434e-06  Max(alpha.water) = 1
DICPCG:  Solving for p_rgh, Initial residual = 0.0200171, Final residual = 0.000571513, No Iterations 1
time step continuity errors : sum local = 0.000567931, global = 1.54457e-08, cumulative = 0.000509956
DICPCG:  Solving for p_rgh, Initial residual = 0.000678665, Final residual = 2.5811e-05, No Iterations 7
time step continuity errors : sum local = 2.52767e-05, global = -3.19901e-08, cumulative = 0.000509924
DICPCG:  Solving for p_rgh, Initial residual = 0.000136025, Final residual = 8.96604e-08, No Iterations 51
time step continuity errors : sum local = 8.7789e-08, global = 4.55085e-09, cumulative = 0.000509929
ExecutionTime = 0.81 s  ClockTime = 1 s

Courant Number mean: 0.111588 max: 0.979669
Interface Courant Number mean: 0.0142704 max: 0.979669
deltaT = 0.00212284
Time = 0.168157

PIMPLE: iteration 1
smoothSolver:  Solving for alpha.water, Initial residual = 0.00581212, Final residual = 6.18633e-09, No Iterations 3
Phase-1 volume fraction = 0.130194  Min(alpha.water) = -6.66788e-17  Max(alpha.water) = 1
MULES: Correcting alpha.water
MULES: Correcting alpha.water
Phase-1 volume fraction = 0.130194  Min(alpha.water) = -8.762e-06  Max(alpha.water) = 1
DICPCG:  Solving for p_rgh, Initial residual = 0.019365, Final residual = 0.000578612, No Iterations 1
time step continuity errors : sum local = 0.000569069, global = 1.51985e-08, cumulative = 0.000509944
DICPCG:  Solving for p_rgh, Initial residual = 0.000683877, Final residual = 3.25422e-05, No Iterations 6
time step continuity errors : sum local = 3.15811e-05, global = -7.47127e-09, cumulative = 0.000509936
DICPCG:  Solving for p_rgh, Initial residual = 0.000141717, Final residual = 7.74184e-08, No Iterations 51
time step continuity errors : sum local = 7.50654e-08, global = 3.54486e-09, cumulative = 0.00050994
ExecutionTime = 0.82 s  ClockTime = 1 s

Courant Number mean: 0.111749 max: 0.977576
Interface Courant Number mean: 0.0146323 max: 0.977576
deltaT = 0.00212284
Time = 0.17028

PIMPLE: iteration 1
smoothSolver:  Solving for alpha.water, Initial residual = 0.00592976, Final residual = 5.99105e-09, No Iterations 3
Phase-1 volume fraction = 0.130194  Min(alpha.water) = -6.12301e-17  Max(alpha.water) = 1
MULES: Correcting alpha.water
MULES: Correcting alpha.water
Phase-1 volume fraction = 0.130194  Min(alpha.water) = -6.24773e-06  Max(alpha.water) = 1
DICPCG:  Solving for p_rgh, Initial residual = 0.0179202, Final residual = 0.000598856, No Iterations 1
time step continuity errors : sum local = 0.000582995, global = 2.01308e-08, cumulative = 0.00050996
DICPCG:  Solving for p_rgh, Initial residual = 0.000701736, Final residual = 2.9591e-05, No Iterations 7
time step continuity errors : sum local = 2.84701e-05, global = -1.31486e-08, cumulative = 0.000509947
DICPCG:  Solving for p_rgh, Initial residual = 0.000144653, Final residual = 8.9757e-08, No Iterations 51
time step continuity errors : sum local = 8.62318e-08, global = -2.36225e-09, cumulative = 0.000509945
ExecutionTime = 0.83 s  ClockTime = 1 s

Courant Number mean: 0.112049 max: 0.989279
Interface Courant Number mean: 0.0146359 max: 0.989279
deltaT = 0.00212284
Time = 0.172403

PIMPLE: iteration 1
smoothSolver:  Solving for alpha.water, Initial residual = 0.00601372, Final residual = 5.8227e-09, No Iterations 3
Phase-1 volume fraction = 0.130194  Min(alpha.water) = -5.61799e-17  Max(alpha.water) = 1
MULES: Correcting alpha.water
MULES: Correcting alpha.water
Phase-1 volume fraction = 0.130194  Min(alpha.water) = -8.41065e-06  Max(alpha.water) = 1
DICPCG:  Solving for p_rgh, Initial residual = 0.0174717, Final residual = 0.000664698, No Iterations 1
time step continuity errors : sum local = 0.000643621, global = 2.74248e-09, cumulative = 0.000509947
DICPCG:  Solving for p_rgh, Initial residual = 0.000771014, Final residual = 3.67987e-05, No Iterations 11
time step continuity errors : sum local = 3.52697e-05, global = 3.46172e-07, cumulative = 0.000510293
DICPCG:  Solving for p_rgh, Initial residual = 0.000156343, Final residual = 7.18142e-08, No Iterations 52
time step continuity errors : sum local = 6.84608e-08, global = 1.23441e-10, cumulative = 0.000510294
ExecutionTime = 0.85 s  ClockTime = 1 s

Courant Number mean: 0.112401 max: 1.00098
Interface Courant Number mean: 0.0147345 max: 1.00098
deltaT = 0.00212284
Time = 0.174526

PIMPLE: iteration 1
smoothSolver:  Solving for alpha.water, Initial residual = 0.00614806, Final residual = 5.6328e-09, No Iterations 3
Phase-1 volume fraction = 0.130194  Min(alpha.water) = -5.15138e-17  Max(alpha.water) = 1
MULES: Correcting alpha.water
MULES: Correcting alpha.water
Phase-1 volume fraction = 0.130194  Min(alpha.water) = -1.66008e-05  Max(alpha.water) = 1
[...]
ExecutionTime = 6.03 s  ClockTime = 7 s

Courant Number mean: 0.228465 max: 0.973883
Interface Courant Number mean: 0.0490592 max: 0.971218
deltaT = 0.003125
Time = 0.953125

PIMPLE: iteration 1
smoothSolver:  Solving for alpha.water, Initial residual = 0.00923677, Final residual = 9.92321e-09, No Iterations 3
Phase-1 volume fraction = 0.127378  Min(alpha.water) = -2.1851e-08  Max(alpha.water) = 1
MULES: Correcting alpha.water
MULES: Correcting alpha.water
Phase-1 volume fraction = 0.127378  Min(alpha.water) = -2.17062e-06  Max(alpha.water) = 1
DICPCG:  Solving for p_rgh, Initial residual = 0.0429939, Final residual = 0.00126832, No Iterations 2
time step continuity errors : sum local = 0.00166378, global = -1.5596e-06, cumulative = 0.00417796
DICPCG:  Solving for p_rgh, Initial residual = 0.00158648, Final residual = 7.05352e-05, No Iterations 11
time step continuity errors : sum local = 9.07288e-05, global = 4.50003e-06, cumulative = 0.00418246
DICPCG:  Solving for p_rgh, Initial residual = 0.000332506, Final residual = 8.76037e-08, No Iterations 49
time step continuity errors : sum local = 1.13113e-07, global = -2.02842e-09, cumulative = 0.00418246
ExecutionTime = 6.04 s  ClockTime = 7 s

Courant Number mean: 0.24386 max: 1.04506
Interface Courant Number mean: 0.0524212 max: 1.03893
deltaT = 0.00292969
Time = 0.956055

PIMPLE: iteration 1
smoothSolver:  Solving for alpha.water, Initial residual = 0.00865174, Final residual = 7.15955e-09, No Iterations 3
Phase-1 volume fraction = 0.127378  Min(alpha.water) = -1.88535e-08  Max(alpha.water) = 1
MULES: Correcting alpha.water
MULES: Correcting alpha.water
Phase-1 volume fraction = 0.127378  Min(alpha.water) = -1.80554e-06  Max(alpha.water) = 1
DICPCG:  Solving for p_rgh, Initial residual = 0.0407345, Final residual = 0.00121315, No Iterations 2
time step continuity errors : sum local = 0.00137887, global = -1.62738e-06, cumulative = 0.00418083
DICPCG:  Solving for p_rgh, Initial residual = 0.00152044, Final residual = 7.38415e-05, No Iterations 10
time step continuity errors : sum local = 8.2342e-05, global = -2.24201e-06, cumulative = 0.00417859
DICPCG:  Solving for p_rgh, Initial residual = 0.000311337, Final residual = 9.3099e-08, No Iterations 49
time step continuity errors : sum local = 1.04053e-07, global = 2.25141e-09, cumulative = 0.00417859
ExecutionTime = 6.05 s  ClockTime = 7 s

Courant Number mean: 0.230356 max: 0.989232
Interface Courant Number mean: 0.048748 max: 0.93572
deltaT = 0.00292969
Time = 0.958984

PIMPLE: iteration 1
smoothSolver:  Solving for alpha.water, Initial residual = 0.00876647, Final residual = 7.56503e-09, No Iterations 3
Phase-1 volume fraction = 0.127378  Min(alpha.water) = -1.63731e-08  Max(alpha.water) = 1
MULES: Correcting alpha.water
MULES: Correcting alpha.water
Phase-1 volume fraction = 0.127378  Min(alpha.water) = -1.40733e-06  Max(alpha.water) = 1
DICPCG:  Solving for p_rgh, Initial residual = 0.0404031, Final residual = 0.00116718, No Iterations 2
time step continuity errors : sum local = 0.00135527, global = -1.57673e-06, cumulative = 0.00417702
DICPCG:  Solving for p_rgh, Initial residual = 0.00147165, Final residual = 6.38787e-05, No Iterations 9
time step continuity errors : sum local = 7.26874e-05, global = 1.76916e-06, cumulative = 0.00417878
DICPCG:  Solving for p_rgh, Initial residual = 0.000305101, Final residual = 8.97233e-08, No Iterations 48
time step continuity errors : sum local = 1.02332e-07, global = -7.64704e-09, cumulative = 0.00417878
ExecutionTime = 6.06 s  ClockTime = 7 s

Courant Number mean: 0.232503 max: 1.00079
Interface Courant Number mean: 0.0506535 max: 0.948366
deltaT = 0.00292969
Time = 0.961914

PIMPLE: iteration 1
smoothSolver:  Solving for alpha.water, Initial residual = 0.00875246, Final residual = 8.22116e-09, No Iterations 3
Phase-1 volume fraction = 0.127378  Min(alpha.water) = -1.43045e-08  Max(alpha.water) = 1
MULES: Correcting alpha.water
MULES: Correcting alpha.water
Phase-1 volume fraction = 0.127378  Min(alpha.water) = -2.23443e-06  Max(alpha.water) = 1
DICPCG:  Solving for p_rgh, Initial residual = 0.0403254, Final residual = 0.00125621, No Iterations 2
time step continuity errors : sum local = 0.00141995, global = -2.31119e-06, cumulative = 0.00417647
DICPCG:  Solving for p_rgh, Initial residual = 0.00155289, Final residual = 6.99935e-05, No Iterations 9
time step continuity errors : sum local = 7.77926e-05, global = -3.49406e-06, cumulative = 0.00417297
DICPCG:  Solving for p_rgh, Initial residual = 0.000312976, Final residual = 7.72962e-08, No Iterations 47
time step continuity errors : sum local = 8.59602e-08, global = -1.46122e-09, cumulative = 0.00417297
ExecutionTime = 6.07 s  ClockTime = 7 s

Courant Number mean: 0.234659 max: 1.00892
Interface Courant Number mean: 0.0518387 max: 0.940568
deltaT = 0.00292969
Time = 0.964844

PIMPLE: iteration 1
smoothSolver:  Solving for alpha.water, Initial residual = 0.00879945, Final residual = 8.85228e-09, No Iterations 3
Phase-1 volume fraction = 0.127378  Min(alpha.water) = -1.25622e-08  Max(alpha.water) = 1
MULES: Correcting alpha.water
MULES: Correcting alpha.water
Phase-1 volume fraction = 0.127378  Min(alpha.water) = -1.3719e-06  Max(alpha.water) = 1
DICPCG:  Solving for p_rgh, Initial residual = 0.0451589, Final residual = 0.00138108, No Iterations 2
time step continuity errors : sum local = 0.00158561, global = -2.25501e-06, cumulative = 0.00417071
DICPCG:  Solving for p_rgh, Initial residual = 0.00171223, Final residual = 7.34858e-05, No Iterations 10
time step continuity errors : sum local = 8.27388e-05, global = 2.28038e-06, cumulative = 0.004173
DICPCG:  Solving for p_rgh, Initial residual = 0.000333194, Final residual = 7.92555e-08, No Iterations 48
time step continuity errors : sum local = 8.94965e-08, global = 1.06445e-08, cumulative = 0.00417301
ExecutionTime = 6.08 s  ClockTime = 7 s

Courant Number mean: 0.236729 max: 1.01319
Interface Courant Number mean: 0.0514167 max: 0.926663
deltaT = 0.00292969
Time = 0.967773

PIMPLE: iteration 1
smoothSolver:  Solving for alpha.water, Initial residual = 0.0088219, Final residual = 9.64133e-09, No Iterations 3
Phase-1 volume fraction = 0.127378  Min(alpha.water) = -1.09764e-08  Max(alpha.water) = 1
MULES: Correcting alpha.water
MULES: Correcting alpha.water
Phase-1 volume fraction = 0.127378  Min(alpha.water) = -7.56972e-07  Max(alpha.water) = 1
DICPCG:  Solving for p_rgh, Initial residual = 0.0424589, Final residual = 0.00140187, No Iterations 2
time step continuity errors : sum local = 0.00161579, global = -3.4389e-06, cumulative = 0.00416957
DICPCG:  Solving for p_rgh, Initial residual = 0.00174849, Final residual = 7.9054e-05, No Iterations 10
time step continuity errors : sum local = 8.93403e-05, global = 3.71557e-07, cumulative = 0.00416994
DICPCG:  Solving for p_rgh, Initial residual = 0.000354839, Final residual = 8.17163e-08, No Iterations 48
time step continuity errors : sum local = 9.24926e-08, global = 1.57492e-08, cumulative = 0.00416995
ExecutionTime = 6.09 s  ClockTime = 7 s

Courant Number mean: 0.238783 max: 1.02134
Interface Courant Number mean: 0.0517194 max: 0.914671
deltaT = 0.00292969
Time = 0.970703

PIMPLE: iteration 1
smoothSolver:  Solving for alpha.water, Initial residual = 0.0088774, Final residual = 2.27304e-10, No Iterations 4
Phase-1 volume fraction = 0.127378  Min(alpha.water) = -9.53065e-09  Max(alpha.water) = 1
MULES: Correcting alpha.water
MULES: Correcting alpha.water
Phase-1 volume fraction = 0.127378  Min(alpha.water) = -7.19924e-07  Max(alpha.water) = 1
DICPCG:  Solving for p_rgh, Initial residual = 0.0417838, Final residual = 0.00128519, No Iterations 2
time step continuity errors : sum local = 0.0014606, global = -3.82501e-06, cumulative = 0.00416613
DICPCG:  Solving for p_rgh, Initial residual = 0.00158831, Final residual = 7.88068e-05, No Iterations 9
time step continuity errors : sum local = 8.81324e-05, global = -1.05133e-06, cumulative = 0.00416508
DICPCG:  Solving for p_rgh, Initial residual = 0.000320632, Final residual = 8.19033e-08, No Iterations 48
time step continuity errors : sum local = 9.15133e-08, global = 1.4788e-08, cumulative = 0.00416509
ExecutionTime = 6.11 s  ClockTime = 7 s

Courant Number mean: 0.24073 max: 1.02687
Interface Courant Number mean: 0.0516843 max: 0.921646
deltaT = 0.00292969
Time = 0.973633

PIMPLE: iteration 1
smoothSolver:  Solving for alpha.water, Initial residual = 0.00888986, Final residual = 2.29683e-10, No Iterations 4
Phase-1 volume fraction = 0.127378  Min(alpha.water) = -8.23493e-09  Max(alpha.water) = 1
MULES: Correcting alpha.water
MULES: Correcting alpha.water
Phase-1 volume fraction = 0.127378  Min(alpha.water) = -1.14927e-06  Max(alpha.water) = 1
DICPCG:  Solving for p_rgh, Initial residual = 0.0421393, Final residual = 0.00126575, No Iterations 2
time step continuity errors : sum local = 0.00146644, global = -4.73128e-06, cumulative = 0.00416036
DICPCG:  Solving for p_rgh, Initial residual = 0.00155788, Final residual = 7.22782e-05, No Iterations 9
time step continuity errors : sum local = 8.22831e-05, global = -2.15977e-07, cumulative = 0.00416015
DICPCG:  Solving for p_rgh, Initial residual = 0.000323926, Final residual = 7.89553e-08, No Iterations 48
time step continuity errors : sum local = 9.01925e-08, global = 1.80994e-08, cumulative = 0.00416016
ExecutionTime = 6.12 s  ClockTime = 7 s

Courant Number mean: 0.242546 max: 1.02635
Interface Courant Number mean: 0.0519925 max: 0.921084
deltaT = 0.00292969
Time = 0.976563

PIMPLE: iteration 1
smoothSolver:  Solving for alpha.water, Initial residual = 0.00888104, Final residual = 2.33627e-10, No Iterations 4
Phase-1 volume fraction = 0.127378  Min(alpha.water) = -7.08671e-09  Max(alpha.water) = 1
MULES: Correcting alpha.water
MULES: Correcting alpha.water
Phase-1 volume fraction = 0.127378  Min(alpha.water) = -4.60038e-07  Max(alpha.water) = 1
DICPCG:  Solving for p_rgh, Initial residual = 0.0412135, Final residual = 0.00137735, No Iterations 2
time step continuity errors : sum local = 0.00158373, global = -5.85293e-06, cumulative = 0.00415431
DICPCG:  Solving for p_rgh, Initial residual = 0.00168679, Final residual = 7.06204e-05, No Iterations 15
time step continuity errors : sum local = 7.97665e-05, global = 8.66515e-06, cumulative = 0.00416298
DICPCG:  Solving for p_rgh, Initial residual = 0.000349066, Final residual = 9.46977e-08, No Iterations 50
time step continuity errors : sum local = 1.07773e-07, global = -2.87484e-09, cumulative = 0.00416297
ExecutionTime = 6.13 s  ClockTime = 7 s

Courant Number mean: 0.244212 max: 1.02853
Interface Courant Number mean: 0.0510795 max: 0.908647
deltaT = 0.00292969
Time = 0.979492

PIMPLE: iteration 1
smoothSolver:  Solving for alpha.water, Initial residual = 0.00881389, Final residual = 2.36931e-10, No Iterations 4
Phase-1 volume fraction = 0.127378  Min(alpha.water) = -6.08222e-09  Max(alpha.water) = 1
MULES: Correcting alpha.water
MULES: Correcting alpha.water
Phase-1 volume fraction = 0.127378  Min(alpha.water) = -3.77866e-07  Max(alpha.water) = 1
DICPCG:  Solving for p_rgh, Initial residual = 0.0382033, Final residual = 0.00144748, No Iterations 2
time step continuity errors : sum local = 0.00164485, global = -7.24137e-06, cumulative = 0.00415573
DICPCG:  Solving for p_rgh, Initial residual = 0.00175852, Final residual = 8.47777e-05, No Iterations 13
time step continuity errors : sum local = 9.46573e-05, global = 4.45345e-06, cumulative = 0.00416018
DICPCG:  Solving for p_rgh, Initial residual = 0.000347587, Final residual = 8.43499e-08, No Iterations 50
time step continuity errors : sum local = 9.43101e-08, global = -1.98875e-09, cumulative = 0.00416018
ExecutionTime = 6.14 s  ClockTime = 7 s

Courant Number mean: 0.245487 max: 1.03223
Interface Courant Number mean: 0.0514283 max: 0.915372
deltaT = 0.00292969
Time = 0.982422

PIMPLE: iteration 1
smoothSolver:  Solving for alpha.water, Initial residual = 0.00862253, Final residual = 2.33096e-10, No Iterations 4
Phase-1 volume fraction = 0.127378  Min(alpha.water) = -5.21597e-09  Max(alpha.water) = 1
MULES: Correcting alpha.water
MULES: Correcting alpha.water
Phase-1 volume fraction = 0.127378  Min(alpha.water) = -2.34195e-07  Max(alpha.water) = 1
DICPCG:  Solving for p_rgh, Initial residual = 0.0407145, Final residual = 0.00144101, No Iterations 2
time step continuity errors : sum local = 0.00165187, global = -8.55992e-06, cumulative = 0.00415162
DICPCG:  Solving for p_rgh, Initial residual = 0.00176676, Final residual = 7.87344e-05, No Iterations 16
time step continuity errors : sum local = 8.88375e-05, global = 5.27028e-06, cumulative = 0.00415689
DICPCG:  Solving for p_rgh, Initial residual = 0.000353348, Final residual = 6.64292e-08, No Iterations 51
time step continuity errors : sum local = 7.53517e-08, global = -5.39178e-09, cumulative = 0.00415689
ExecutionTime = 6.15 s  ClockTime = 7 s

Courant Number mean: 0.246586 max: 1.02839
Interface Courant Number mean: 0.0510303 max: 0.890219
deltaT = 0.00292969
Time = 0.985352

PIMPLE: iteration 1
smoothSolver:  Solving for alpha.water, Initial residual = 0.00851974, Final residual = 2.27755e-10, No Iterations 4
Phase-1 volume fraction = 0.127378  Min(alpha.water) = -4.47292e-09  Max(alpha.water) = 1
MULES: Correcting alpha.water
MULES: Correcting alpha.water
Phase-1 volume fraction = 0.127378  Min(alpha.water) = -1.85445e-07  Max(alpha.water) = 1
DICPCG:  Solving for p_rgh, Initial residual = 0.0414863, Final residual = 0.00133635, No Iterations 2
time step continuity errors : sum local = 0.00160572, global = -1.06653e-05, cumulative = 0.00414622
DICPCG:  Solving for p_rgh, Initial residual = 0.00163423, Final residual = 8.05122e-05, No Iterations 15
time step continuity errors : sum local = 9.48797e-05, global = 2.85766e-06, cumulative = 0.00414908
DICPCG:  Solving for p_rgh, Initial residual = 0.000341906, Final residual = 6.72671e-08, No Iterations 51
time step continuity errors : sum local = 7.95668e-08, global = -5.2615e-09, cumulative = 0.00414908
ExecutionTime = 6.16 s  ClockTime = 7 s

Courant Number mean: 0.247369 max: 1.02392
Interface Courant Number mean: 0.0513597 max: 0.900491
deltaT = 0.00292969
Time = 0.988281

PIMPLE: iteration 1
smoothSolver:  Solving for alpha.water, Initial residual = 0.00849114, Final residual = 2.2452e-10, No Iterations 4
Phase-1 volume fraction = 0.127378  Min(alpha.water) = -3.8347e-09  Max(alpha.water) = 1
MULES: Correcting alpha.water
MULES: Correcting alpha.water
Phase-1 volume fraction = 0.127378  Min(alpha.water) = -1.61285e-07  Max(alpha.water) = 1
DICPCG:  Solving for p_rgh, Initial residual = 0.0427512, Final residual = 0.00133935, No Iterations 2
time step continuity errors : sum local = 0.00164504, global = -1.30708e-05, cumulative = 0.004136
DICPCG:  Solving for p_rgh, Initial residual = 0.00166264, Final residual = 7.96986e-05, No Iterations 16
time step continuity errors : sum local = 9.5604e-05, global = 3.92745e-06, cumulative = 0.00413993
DICPCG:  Solving for p_rgh, Initial residual = 0.000332713, Final residual = 7.39535e-08, No Iterations 51
time step continuity errors : sum local = 8.92147e-08, global = -2.56975e-09, cumulative = 0.00413993
ExecutionTime = 6.18 s  ClockTime = 7 s

Courant Number mean: 0.247944 max: 1.02527
Interface Courant Number mean: 0.051662 max: 0.895982
deltaT = 0.00292969
Time = 0.991211

PIMPLE: iteration 1
smoothSolver:  Solving for alpha.water, Initial residual = 0.00845681, Final residual = 2.2918e-10, No Iterations 4
Phase-1 volume fraction = 0.127378  Min(alpha.water) = -3.7536e-08  Max(alpha.water) = 1
MULES: Correcting alpha.water
MULES: Correcting alpha.water
Phase-1 volume fraction = 0.127378  Min(alpha.water) = -1.00153e-06  Max(alpha.water) = 1
DICPCG:  Solving for p_rgh, Initial residual = 0.0397829, Final residual = 0.00141413, No Iterations 2
time step continuity errors : sum local = 0.00172111, global = -1.7296e-05, cumulative = 0.00412263
DICPCG:  Solving for p_rgh, Initial residual = 0.00171433, Final residual = 7.4991e-05, No Iterations 17
time step continuity errors : sum local = 8.95902e-05, global = -2.2117e-07, cumulative = 0.00412241
DICPCG:  Solving for p_rgh, Initial residual = 0.000313668, Final residual = 9.24485e-08, No Iterations 50
time step continuity errors : sum local = 1.11024e-07, global = 5.21624e-09, cumulative = 0.00412242
ExecutionTime = 6.19 s  ClockTime = 7 s

Courant Number mean: 0.248019 max: 1.02158
Interface Courant Number mean: 0.0514494 max: 0.875752
deltaT = 0.00292969
Time = 0.994141

PIMPLE: iteration 1
smoothSolver:  Solving for alpha.water, Initial residual = 0.0084236, Final residual = 2.44194e-10, No Iterations 4
Phase-1 volume fraction = 0.127378  Min(alpha.water) = -1.70736e-08  Max(alpha.water) = 1
MULES: Correcting alpha.water
MULES: Correcting alpha.water
Phase-1 volume fraction = 0.127378  Min(alpha.water) = -1.63763e-07  Max(alpha.water) = 1
DICPCG:  Solving for p_rgh, Initial residual = 0.0377504, Final residual = 0.00126538, No Iterations 2
time step continuity errors : sum local = 0.00151234, global = -2.0171e-05, cumulative = 0.00410225
DICPCG:  Solving for p_rgh, Initial residual = 0.00157256, Final residual = 7.30793e-05, No Iterations 18
time step continuity errors : sum local = 8.59788e-05, global = -1.05003e-05, cumulative = 0.00409175
DICPCG:  Solving for p_rgh, Initial residual = 0.000295193, Final residual = 7.67422e-08, No Iterations 51
time step continuity errors : sum local = 9.09972e-08, global = -3.44647e-12, cumulative = 0.00409175
ExecutionTime = 6.2 s  ClockTime = 7 s

Courant Number mean: 0.247574 max: 1.01159
Interface Courant Number mean: 0.0507647 max: 0.87788
deltaT = 0.00292969
Time = 0.99707

PIMPLE: iteration 1
smoothSolver:  Solving for alpha.water, Initial residual = 0.00832619, Final residual = 2.62565e-10, No Iterations 4
Phase-1 volume fraction = 0.127378  Min(alpha.water) = -9.43882e-09  Max(alpha.water) = 1
MULES: Correcting alpha.water
MULES: Correcting alpha.water
Phase-1 volume fraction = 0.127378  Min(alpha.water) = -1.61082e-07  Max(alpha.water) = 1
DICPCG:  Solving for p_rgh, Initial residual = 0.0370869, Final residual = 0.00126867, No Iterations 2
time step continuity errors : sum local = 0.00157158, global = -2.56967e-05, cumulative = 0.00406605
DICPCG:  Solving for p_rgh, Initial residual = 0.00157278, Final residual = 7.62396e-05, No Iterations 16
time step continuity errors : sum local = 9.28139e-05, global = 7.35204e-06, cumulative = 0.0040734
DICPCG:  Solving for p_rgh, Initial residual = 0.000322756, Final residual = 6.64917e-08, No Iterations 49
time step continuity errors : sum local = 8.15131e-08, global = 1.73376e-09, cumulative = 0.0040734
ExecutionTime = 6.21 s  ClockTime = 7 s

Courant Number mean: 0.247128 max: 1.00941
Interface Courant Number mean: 0.051136 max: 0.844958
deltaT = 0.00292969
Time = 1

PIMPLE: iteration 1
smoothSolver:  Solving for alpha.water, Initial residual = 0.00818841, Final residual = 2.84689e-10, No Iterations 4
Phase-1 volume fraction = 0.127378  Min(alpha.water) = -3.363e-09  Max(alpha.water) = 1
MULES: Correcting alpha.water
MULES: Correcting alpha.water
Phase-1 volume fraction = 0.127378  Min(alpha.water) = -1.30193e-06  Max(alpha.water) = 1
DICPCG:  Solving for p_rgh, Initial residual = 0.0358737, Final residual = 0.00129016, No Iterations 2
time step continuity errors : sum local = 0.00158014, global = -3.3646e-05, cumulative = 0.00403976
DICPCG:  Solving for p_rgh, Initial residual = 0.00158704, Final residual = 6.59532e-05, No Iterations 18
time step continuity errors : sum local = 7.95102e-05, global = 2.63189e-06, cumulative = 0.00404239
DICPCG:  Solving for p_rgh, Initial residual = 0.000298713, Final residual = 6.1203e-08, No Iterations 49
time step continuity errors : sum local = 7.4166e-08, global = 6.31263e-09, cumulative = 0.0040424
ExecutionTime = 6.23 s  ClockTime = 7 s

End

