/*---------------------------------------------------------------------------*\
| =========                 |                                                 |
| \\      /  F ield         | OpenFOAM: The Open Source CFD Toolbox           |
|  \\    /   O peration     | Version:  3.0.1                                 |
|   \\  /    A nd           | Web:      www.OpenFOAM.org                      |
|    \\/     M anipulation  |                                                 |
\*---------------------------------------------------------------------------*/
Build  : 3.0.1-d8a290b55d28
Exec   : pisoCentralFoam
Date   : Oct 13 2016
Time   : 14:08:37
Host   : "bl022.unicluster.ru"
PID    : 7301
Case   : /lustre/unicluster/home/matvey.kraposhin/run/Unicfdlab/github-hybridCentralSolvers/Tutorials-3.0.1/case-subsonic/Std-3
nProcs : 1
sigFpe : Enabling floating point exception trapping (FOAM_SIGFPE).
fileModificationChecking : Monitoring run-time modified files using timeStampMaster
allowSystemOperations : Allowing user-supplied system call operations

// * * * * * * * * * * * * * * * * * * * * * * * * * * * * * * * * * * * * * //
Create time

Create mesh for time = 0


PIMPLE: Operating solver in PISO mode

Reading thermophysical properties

Selecting thermodynamics package 
{
    type            hePsiThermo;
    mixture         pureMixture;
    transport       const;
    thermo          hConst;
    equationOfState perfectGas;
    specie          specie;
    energy          sensibleEnthalpy;
}

Reading field U

Creating field kinetic energy K

Selecting finite volume kappaFunction type standardMachToAcCourantRatio
Creating turbulence model

Selecting turbulence model type laminar
No finite volume options present

No MRF models present

Marking cells with bad quality to limit pressure gradient
max/min FaceAcCourant: 3.33333e-18/1.66667e-18
max/min Maf: 0/0
max/min kappa: 0/0
Courant Number max : 0 velocity magnitude: 0

Starting time loop

Mean and max Acoustic Courant Numbers = 1.66667e-18 3.33333e-18
Courant Number max : 0 velocity magnitude: 0
Time = 1e-05

diagonal:  Solving for rho, Initial residual = 0, Final residual = 0, No Iterations 0
rho max/min : 0.83124 / 0.710718
DILUPBiCG:  Solving for h, Initial residual = 1, Final residual = 1.10363e-17, No Iterations 1
max/min T: 289/289
DILUPBiCG:  Solving for p, Initial residual = 0.028196, Final residual = 3.39987e-10, No Iterations 6
max(U): (13.6483 0.380568 2.13188e-31)
max/min p: 68970/58970
diagonal:  Solving for rho, Initial residual = 0, Final residual = 0, No Iterations 0
rho max/min : 0.83124 / 0.710718
time step continuity errors : sum local = 5.469e-11, global = -1.38002e-11, cumulative = -1.38002e-11
max/min FaceAcCourant: 1.11754/0.284007
max/min Maf: 0.0719451/0
max/min kappa: 0.121071/0
ExecutionTime = 0.13 s  ClockTime = 0 s

Mean and max Acoustic Courant Numbers = 0.472407 1.11754
Courant Number max : 0.160803 velocity magnitude: 24.5224
Time = 2e-05

diagonal:  Solving for rho, Initial residual = 0, Final residual = 0, No Iterations 0
rho max/min : 0.83124 / 0.710718
DILUPBiCG:  Solving for h, Initial residual = 1, Final residual = 1.85401e-11, No Iterations 2
max/min T: 293.858/283.079
DILUPBiCG:  Solving for p, Initial residual = 0.0177393, Final residual = 3.04477e-10, No Iterations 7
max(U): (16.5864 0.337675 2.13188e-31)
max/min p: 68970/58970
diagonal:  Solving for rho, Initial residual = 0, Final residual = 0, No Iterations 0
rho max/min : 0.83124 / 0.710718
time step continuity errors : sum local = 4.6696e-11, global = -5.73656e-12, cumulative = -1.95367e-11
max/min FaceAcCourant: 1.11754/0.281904
max/min Maf: 0.0576747/0
max/min kappa: 0.0980977/0
ExecutionTime = 0.14 s  ClockTime = 0 s

Mean and max Acoustic Courant Numbers = 0.472914 1.11754
Courant Number max : 0.1288 velocity magnitude: 19.642
Time = 3e-05

diagonal:  Solving for rho, Initial residual = 0, Final residual = 0, No Iterations 0
rho max/min : 0.83124 / 0.710718
DILUPBiCG:  Solving for h, Initial residual = 0.306385, Final residual = 5.93156e-10, No Iterations 2
max/min T: 294.644/281.632
DILUPBiCG:  Solving for p, Initial residual = 0.0134394, Final residual = 2.26174e-10, No Iterations 7
max(U): (20.4811 0.378413 2.13188e-31)
max/min p: 68970/58970
diagonal:  Solving for rho, Initial residual = 0, Final residual = 0, No Iterations 0
rho max/min : 0.83124 / 0.710718
time step continuity errors : sum local = 3.39147e-11, global = 5.53853e-12, cumulative = -1.39982e-11
max/min FaceAcCourant: 1.11754/0.281328
max/min Maf: 0.0609475/0
max/min kappa: 0.103613/0
ExecutionTime = 0.16 s  ClockTime = 0 s

Mean and max Acoustic Courant Numbers = 0.473434 1.11754
Courant Number max : 0.135936 velocity magnitude: 20.7303
Time = 4e-05

diagonal:  Solving for rho, Initial residual = 0, Final residual = 0, No Iterations 0
rho max/min : 0.83124 / 0.710718
DILUPBiCG:  Solving for h, Initial residual = 0.218076, Final residual = 2.44843e-10, No Iterations 2
max/min T: 294.642/282.031
DILUPBiCG:  Solving for p, Initial residual = 0.0152582, Final residual = 1.92934e-10, No Iterations 7
max(U): (21.4208 0.35471 2.13188e-31)
max/min p: 68970/58970
diagonal:  Solving for rho, Initial residual = 0, Final residual = 0, No Iterations 0
rho max/min : 0.83124 / 0.710718
time step continuity errors : sum local = 2.8164e-11, global = 9.28106e-12, cumulative = -4.71715e-12
max/min FaceAcCourant: 1.11754/0.281226
max/min Maf: 0.0577814/0
max/min kappa: 0.0978639/0
ExecutionTime = 0.18 s  ClockTime = 1 s

Mean and max Acoustic Courant Numbers = 0.473896 1.11754
Courant Number max : 0.127677 velocity magnitude: 19.4708
Time = 5e-05

diagonal:  Solving for rho, Initial residual = 0, Final residual = 0, No Iterations 0
rho max/min : 0.83124 / 0.710718
DILUPBiCG:  Solving for h, Initial residual = 0.173747, Final residual = 1.32682e-10, No Iterations 2
max/min T: 295.025/282.677
DILUPBiCG:  Solving for p, Initial residual = 0.0143389, Final residual = 1.44017e-10, No Iterations 7
max(U): (20.9754 0.412619 2.13188e-31)
max/min p: 68970/58970
diagonal:  Solving for rho, Initial residual = 0, Final residual = 0, No Iterations 0
rho max/min : 0.83124 / 0.710718
time step continuity errors : sum local = 2.04794e-11, global = 4.80694e-12, cumulative = 8.97904e-14
max/min FaceAcCourant: 1.11754/0.28097
max/min Maf: 0.0568412/0
max/min kappa: 0.0970005/0
ExecutionTime = 0.24 s  ClockTime = 1 s

Mean and max Acoustic Courant Numbers = 0.474376 1.11754
Courant Number max : 0.126528 velocity magnitude: 19.2955
Time = 6e-05

diagonal:  Solving for rho, Initial residual = 0, Final residual = 0, No Iterations 0
rho max/min : 0.83124 / 0.710718
DILUPBiCG:  Solving for h, Initial residual = 0.132572, Final residual = 5.91739e-11, No Iterations 2
max/min T: 295.383/282.531
DILUPBiCG:  Solving for p, Initial residual = 0.0142561, Final residual = 2.19538e-10, No Iterations 7
max(U): (20.2854 0.41386 2.13188e-31)
max/min p: 68970/58970
diagonal:  Solving for rho, Initial residual = 0, Final residual = 0, No Iterations 0
rho max/min : 0.83124 / 0.710718
time step continuity errors : sum local = 3.04129e-11, global = 1.56098e-11, cumulative = 1.56996e-11
max/min FaceAcCourant: 1.11754/0.280836
max/min Maf: 0.0568104/0
max/min kappa: 0.09693/0
ExecutionTime = 0.25 s  ClockTime = 1 s

Mean and max Acoustic Courant Numbers = 0.474845 1.11754
Courant Number max : 0.126406 velocity magnitude: 19.2769
Time = 7e-05

diagonal:  Solving for rho, Initial residual = 0, Final residual = 0, No Iterations 0
rho max/min : 0.83124 / 0.710718
DILUPBiCG:  Solving for h, Initial residual = 0.10479, Final residual = 1.38159e-11, No Iterations 2
max/min T: 295.403/282.473
DILUPBiCG:  Solving for p, Initial residual = 0.0140413, Final residual = 1.58122e-10, No Iterations 7
max(U): (19.8267 0.396694 2.13188e-31)
max/min p: 68970/58970
diagonal:  Solving for rho, Initial residual = 0, Final residual = 0, No Iterations 0
rho max/min : 0.83124 / 0.710718
time step continuity errors : sum local = 2.13522e-11, global = 1.25852e-11, cumulative = 2.82848e-11
max/min FaceAcCourant: 1.11754/0.28084
max/min Maf: 0.0571/0
max/min kappa: 0.0974004/0
ExecutionTime = 0.25 s  ClockTime = 1 s

Mean and max Acoustic Courant Numbers = 0.47531 1.11754
Courant Number max : 0.126983 velocity magnitude: 19.3649
Time = 8e-05

diagonal:  Solving for rho, Initial residual = 0, Final residual = 0, No Iterations 0
rho max/min : 0.83124 / 0.710718
DILUPBiCG:  Solving for h, Initial residual = 0.088803, Final residual = 3.82143e-12, No Iterations 2
max/min T: 295.365/282.505
DILUPBiCG:  Solving for p, Initial residual = 0.0141243, Final residual = 1.0383e-10, No Iterations 7
max(U): (19.5554 0.365482 2.13188e-31)
max/min p: 68970/58970
diagonal:  Solving for rho, Initial residual = 0, Final residual = 0, No Iterations 0
rho max/min : 0.83124 / 0.710718
time step continuity errors : sum local = 1.36666e-11, global = 7.76745e-13, cumulative = 2.90615e-11
max/min FaceAcCourant: 1.11754/0.280858
max/min Maf: 0.0569771/0
max/min kappa: 0.0971971/0
ExecutionTime = 0.26 s  ClockTime = 1 s

Mean and max Acoustic Courant Numbers = 0.475788 1.11754
Courant Number max : 0.126634 velocity magnitude: 19.3117
Time = 9e-05

diagonal:  Solving for rho, Initial residual = 0, Final residual = 0, No Iterations 0
rho max/min : 0.83124 / 0.710718
DILUPBiCG:  Solving for h, Initial residual = 0.0763022, Final residual = 1.37093e-12, No Iterations 2
max/min T: 295.427/282.529
DILUPBiCG:  Solving for p, Initial residual = 0.0141359, Final residual = 1.00856e-10, No Iterations 7
max(U): (19.3904 0.322831 2.13188e-31)
max/min p: 68970/58970
diagonal:  Solving for rho, Initial residual = 0, Final residual = 0, No Iterations 0
rho max/min : 0.83124 / 0.710718
time step continuity errors : sum local = 1.29222e-11, global = 6.24645e-12, cumulative = 3.5308e-11
max/min FaceAcCourant: 1.11754/0.280868
max/min Maf: 0.0568862/0
max/min kappa: 0.0970582/0
ExecutionTime = 0.27 s  ClockTime = 1 s

Mean and max Acoustic Courant Numbers = 0.476245 1.11754
Courant Number max : 0.126367 velocity magnitude: 19.271
Time = 0.0001

diagonal:  Solving for rho, Initial residual = 0, Final residual = 0, No Iterations 0
rho max/min : 0.83124 / 0.710718
DILUPBiCG:  Solving for h, Initial residual = 0.0669031, Final residual = 6.09615e-13, No Iterations 2
max/min T: 295.453/282.528
DILUPBiCG:  Solving for p, Initial residual = 0.0143759, Final residual = 1.89179e-11, No Iterations 8
max(U): (19.259 0.275226 2.13188e-31)
max/min p: 68970/58970
diagonal:  Solving for rho, Initial residual = 0, Final residual = 0, No Iterations 0
rho max/min : 0.83124 / 0.710718
time step continuity errors : sum local = 2.36026e-12, global = -9.10662e-13, cumulative = 3.43973e-11
max/min FaceAcCourant: 1.11754/0.280857
max/min Maf: 0.0568672/0
max/min kappa: 0.0970455/0
ExecutionTime = 0.29 s  ClockTime = 1 s

Mean and max Acoustic Courant Numbers = 0.476723 1.11754
Courant Number max : 0.126271 velocity magnitude: 19.2563
Time = 0.00011

diagonal:  Solving for rho, Initial residual = 0, Final residual = 0, No Iterations 0
rho max/min : 0.83124 / 0.710718
DILUPBiCG:  Solving for h, Initial residual = 0.0595033, Final residual = 4.50347e-13, No Iterations 2
max/min T: 295.451/282.52
DILUPBiCG:  Solving for p, Initial residual = 0.0147746, Final residual = 7.65909e-11, No Iterations 7
max(U): (19.1383 0.229085 2.13188e-31)
max/min p: 68970/58970
diagonal:  Solving for rho, Initial residual = 0, Final residual = 0, No Iterations 0
rho max/min : 0.83124 / 0.710718
time step continuity errors : sum local = 9.29513e-12, global = -1.0715e-12, cumulative = 3.33258e-11
max/min FaceAcCourant: 1.11754/0.280852
max/min Maf: 0.0567976/0
max/min kappa: 0.0969277/0
ExecutionTime = 0.3 s  ClockTime = 1 s

Mean and max Acoustic Courant Numbers = 0.477193 1.11754
Courant Number max : 0.126107 velocity magnitude: 19.2313
Time = 0.00012

diagonal:  Solving for rho, Initial residual = 0, Final residual = 0, No Iterations 0
rho max/min : 0.83124 / 0.710718
DILUPBiCG:  Solving for h, Initial residual = 0.0535904, Final residual = 5.11212e-13, No Iterations 2
max/min T: 295.45/282.516
DILUPBiCG:  Solving for p, Initial residual = 0.0149106, Final residual = 9.72278e-10, No Iterations 6
max(U): (19.0592 0.186146 2.13188e-31)
max/min p: 68970/58970
diagonal:  Solving for rho, Initial residual = 0, Final residual = 0, No Iterations 0
rho max/min : 0.83124 / 0.710718
time step continuity errors : sum local = 1.14673e-10, global = 3.36628e-11, cumulative = 6.69887e-11
max/min FaceAcCourant: 1.11754/0.280852
max/min Maf: 0.0567253/0
max/min kappa: 0.0968322/0
ExecutionTime = 0.31 s  ClockTime = 1 s

Mean and max Acoustic Courant Numbers = 0.477666 1.11754
Courant Number max : 0.12599 velocity magnitude: 19.2135
Time = 0.00013

diagonal:  Solving for rho, Initial residual = 0, Final residual = 0, No Iterations 0
rho max/min : 0.83124 / 0.710718
DILUPBiCG:  Solving for h, Initial residual = 0.0486696, Final residual = 3.52961e-13, No Iterations 2
max/min T: 295.456/282.52
DILUPBiCG:  Solving for p, Initial residual = 0.0153909, Final residual = 2.75883e-10, No Iterations 7
max(U): (19.0243 0.157202 2.13188e-31)
max/min p: 68970/58970
diagonal:  Solving for rho, Initial residual = 0, Final residual = 0, No Iterations 0
rho max/min : 0.83124 / 0.710718
time step continuity errors : sum local = 3.16109e-11, global = -1.37638e-11, cumulative = 5.32248e-11
max/min FaceAcCourant: 1.11754/0.280853
max/min Maf: 0.0566663/0
max/min kappa: 0.0967589/0
ExecutionTime = 0.32 s  ClockTime = 1 s

Mean and max Acoustic Courant Numbers = 0.478141 1.11754
Courant Number max : 0.126 velocity magnitude: 19.2151
Time = 0.00014

diagonal:  Solving for rho, Initial residual = 0, Final residual = 0, No Iterations 0
rho max/min : 0.83124 / 0.710718
DILUPBiCG:  Solving for h, Initial residual = 0.044581, Final residual = 1.74737e-13, No Iterations 2
max/min T: 295.456/282.529
DILUPBiCG:  Solving for p, Initial residual = 0.0157819, Final residual = 1.63002e-10, No Iterations 7
max(U): (19.0106 0.145327 2.13188e-31)
max/min p: 68970/58970
diagonal:  Solving for rho, Initial residual = 0, Final residual = 0, No Iterations 0
rho max/min : 0.83124 / 0.710718
time step continuity errors : sum local = 1.81209e-11, global = -4.76913e-12, cumulative = 4.84557e-11
max/min FaceAcCourant: 1.11754/0.280849
max/min Maf: 0.0566355/0
max/min kappa: 0.0967318/0
ExecutionTime = 0.32 s  ClockTime = 1 s

Mean and max Acoustic Courant Numbers = 0.478615 1.11754
Courant Number max : 0.125952 velocity magnitude: 19.2077
Time = 0.00015

diagonal:  Solving for rho, Initial residual = 0, Final residual = 0, No Iterations 0
rho max/min : 0.83124 / 0.710718
DILUPBiCG:  Solving for h, Initial residual = 0.0411204, Final residual = 9.98808e-14, No Iterations 2
max/min T: 295.453/282.53
DILUPBiCG:  Solving for p, Initial residual = 0.0162763, Final residual = 1.73704e-10, No Iterations 7
max(U): (19.0045 0.149059 2.13188e-31)
max/min p: 68970/58970
diagonal:  Solving for rho, Initial residual = 0, Final residual = 0, No Iterations 0
rho max/min : 0.83124 / 0.710718
time step continuity errors : sum local = 1.87233e-11, global = -6.02609e-12, cumulative = 4.24296e-11
max/min FaceAcCourant: 1.11754/0.280847
max/min Maf: 0.056582/0
max/min kappa: 0.0966638/0
ExecutionTime = 0.35 s  ClockTime = 1 s

Mean and max Acoustic Courant Numbers = 0.479091 1.11754
Courant Number max : 0.125849 velocity magnitude: 19.192
Time = 0.00016

diagonal:  Solving for rho, Initial residual = 0, Final residual = 0, No Iterations 0
rho max/min : 0.83124 / 0.710718
DILUPBiCG:  Solving for h, Initial residual = 0.0381831, Final residual = 5.71034e-14, No Iterations 2
max/min T: 295.458/282.529
DILUPBiCG:  Solving for p, Initial residual = 0.0167458, Final residual = 1.5426e-10, No Iterations 7
max(U): (19.0027 0.148684 2.13188e-31)
max/min p: 68970/58970
diagonal:  Solving for rho, Initial residual = 0, Final residual = 0, No Iterations 0
rho max/min : 0.83124 / 0.710718
time step continuity errors : sum local = 1.61058e-11, global = -6.31254e-12, cumulative = 3.61171e-11
max/min FaceAcCourant: 1.11754/0.280847
max/min Maf: 0.0565404/0
max/min kappa: 0.0966151/0
ExecutionTime = 0.36 s  ClockTime = 1 s

Mean and max Acoustic Courant Numbers = 0.479566 1.11754
Courant Number max : 0.125878 velocity magnitude: 19.1964
Time = 0.00017

diagonal:  Solving for rho, Initial residual = 0, Final residual = 0, No Iterations 0
rho max/min : 0.83124 / 0.710718
DILUPBiCG:  Solving for h, Initial residual = 0.03564, Final residual = 4.27979e-14, No Iterations 2
max/min T: 295.46/282.531
DILUPBiCG:  Solving for p, Initial residual = 0.0172658, Final residual = 1.52009e-10, No Iterations 7
max(U): (19.002 0.142287 2.13187e-31)
max/min p: 68970/58970
diagonal:  Solving for rho, Initial residual = 0, Final residual = 0, No Iterations 0
rho max/min : 0.83124 / 0.710718
time step continuity errors : sum local = 1.53552e-11, global = -5.84238e-12, cumulative = 3.02747e-11
max/min FaceAcCourant: 1.11754/0.280848
max/min Maf: 0.0565419/0
max/min kappa: 0.0966377/0
ExecutionTime = 0.36 s  ClockTime = 1 s

Mean and max Acoustic Courant Numbers = 0.480042 1.11754
Courant Number max : 0.125957 velocity magnitude: 19.2084
Time = 0.00018

diagonal:  Solving for rho, Initial residual = 0, Final residual = 0, No Iterations 0
rho max/min : 0.83124 / 0.710718
DILUPBiCG:  Solving for h, Initial residual = 0.0334201, Final residual = 4.78437e-14, No Iterations 2
max/min T: 295.46/282.533
DILUPBiCG:  Solving for p, Initial residual = 0.0178566, Final residual = 1.56494e-10, No Iterations 7
max(U): (19.0038 0.13369 2.13565e-31)
max/min p: 68970/58970
diagonal:  Solving for rho, Initial residual = 0, Final residual = 0, No Iterations 0
rho max/min : 0.83124 / 0.710718
time step continuity errors : sum local = 1.52794e-11, global = -4.90716e-12, cumulative = 2.53675e-11
max/min FaceAcCourant: 1.11754/0.28085
max/min Maf: 0.0565468/0
max/min kappa: 0.0966625/0
ExecutionTime = 0.37 s  ClockTime = 1 s

Mean and max Acoustic Courant Numbers = 0.480519 1.11754
Courant Number max : 0.125932 velocity magnitude: 19.2047
Time = 0.00019

diagonal:  Solving for rho, Initial residual = 0, Final residual = 0, No Iterations 0
rho max/min : 0.83124 / 0.710718
DILUPBiCG:  Solving for h, Initial residual = 0.031476, Final residual = 4.8375e-14, No Iterations 2
max/min T: 295.46/282.534
DILUPBiCG:  Solving for p, Initial residual = 0.0184757, Final residual = 7.75905e-10, No Iterations 6
max(U): (19.009 0.128322 2.15004e-31)
max/min p: 68970/58970
diagonal:  Solving for rho, Initial residual = 0, Final residual = 0, No Iterations 0
rho max/min : 0.83124 / 0.710718
time step continuity errors : sum local = 7.3121e-11, global = 4.96949e-11, cumulative = 7.50624e-11
max/min FaceAcCourant: 1.11754/0.280851
max/min Maf: 0.0565452/0
max/min kappa: 0.0966748/0
ExecutionTime = 0.38 s  ClockTime = 1 s

Mean and max Acoustic Courant Numbers = 0.480995 1.11754
Courant Number max : 0.125875 velocity magnitude: 19.196
Time = 0.0002

diagonal:  Solving for rho, Initial residual = 0, Final residual = 0, No Iterations 0
rho max/min : 0.83124 / 0.710718
DILUPBiCG:  Solving for h, Initial residual = 0.0297434, Final residual = 4.22985e-14, No Iterations 2
max/min T: 295.461/282.535
DILUPBiCG:  Solving for p, Initial residual = 0.0191796, Final residual = 1.22088e-10, No Iterations 7
max(U): (19.0152 0.122137 2.14329e-31)
max/min p: 68970/58970
diagonal:  Solving for rho, Initial residual = 0, Final residual = 0, No Iterations 0
rho max/min : 0.83124 / 0.710718
time step continuity errors : sum local = 1.10923e-11, global = -4.36852e-12, cumulative = 7.06939e-11
max/min FaceAcCourant: 1.11754/0.280852
max/min Maf: 0.0565403/0
max/min kappa: 0.0966802/0
ExecutionTime = 0.41 s  ClockTime = 1 s

Mean and max Acoustic Courant Numbers = 0.481473 1.11754
Courant Number max : 0.125825 velocity magnitude: 19.1884
Time = 0.00021

diagonal:  Solving for rho, Initial residual = 0, Final residual = 0, No Iterations 0
rho max/min : 0.83124 / 0.710718
DILUPBiCG:  Solving for h, Initial residual = 0.0281994, Final residual = 3.72029e-14, No Iterations 2
max/min T: 295.463/282.535
DILUPBiCG:  Solving for p, Initial residual = 0.0199127, Final residual = 1.58305e-10, No Iterations 7
max(U): (19.0208 0.115541 2.13166e-31)
max/min p: 68970/58970
diagonal:  Solving for rho, Initial residual = 0, Final residual = 0, No Iterations 0
rho max/min : 0.83124 / 0.710718
time step continuity errors : sum local = 1.38465e-11, global = -5.90203e-12, cumulative = 6.47919e-11
max/min FaceAcCourant: 1.11754/0.280851
max/min Maf: 0.0565346/0
max/min kappa: 0.0966918/0
ExecutionTime = 0.42 s  ClockTime = 1 s

Mean and max Acoustic Courant Numbers = 0.48195 1.11754
Courant Number max : 0.125792 velocity magnitude: 19.1832
Time = 0.00022

diagonal:  Solving for rho, Initial residual = 0, Final residual = 0, No Iterations 0
rho max/min : 0.83124 / 0.710718
DILUPBiCG:  Solving for h, Initial residual = 0.0268131, Final residual = 3.52545e-14, No Iterations 2
max/min T: 295.465/282.535
DILUPBiCG:  Solving for p, Initial residual = 0.0207185, Final residual = 7.1105e-10, No Iterations 6
max(U): (19.027 0.109196 2.13145e-31)
max/min p: 68970/58970
diagonal:  Solving for rho, Initial residual = 0, Final residual = 0, No Iterations 0
rho max/min : 0.83124 / 0.710718
time step continuity errors : sum local = 5.97825e-11, global = 2.6286e-11, cumulative = 9.10779e-11
max/min FaceAcCourant: 1.11754/0.28085
max/min Maf: 0.0565271/0
max/min kappa: 0.0967252/0
ExecutionTime = 0.43 s  ClockTime = 1 s

Mean and max Acoustic Courant Numbers = 0.482428 1.11754
Courant Number max : 0.125746 velocity magnitude: 19.1762
Time = 0.00023

diagonal:  Solving for rho, Initial residual = 0, Final residual = 0, No Iterations 0
rho max/min : 0.83124 / 0.710718
DILUPBiCG:  Solving for h, Initial residual = 0.0255614, Final residual = 3.03369e-14, No Iterations 2
max/min T: 295.467/282.535
DILUPBiCG:  Solving for p, Initial residual = 0.021585, Final residual = 8.46837e-10, No Iterations 6
max(U): (19.031 0.103311 2.1416e-31)
max/min p: 68970/58970.1
diagonal:  Solving for rho, Initial residual = 0, Final residual = 0, No Iterations 0
rho max/min : 0.83124 / 0.710718
time step continuity errors : sum local = 6.83278e-11, global = -4.4835e-12, cumulative = 8.65944e-11
max/min FaceAcCourant: 1.11754/0.280849
max/min Maf: 0.056518/0
max/min kappa: 0.0967417/0
ExecutionTime = 0.43 s  ClockTime = 1 s

Mean and max Acoustic Courant Numbers = 0.482906 1.11754
Courant Number max : 0.125702 velocity magnitude: 19.1696
Time = 0.00024

diagonal:  Solving for rho, Initial residual = 0, Final residual = 0, No Iterations 0
rho max/min : 0.831239 / 0.710718
DILUPBiCG:  Solving for h, Initial residual = 0.0244276, Final residual = 2.53497e-14, No Iterations 2
max/min T: 295.468/282.534
DILUPBiCG:  Solving for p, Initial residual = 0.0225317, Final residual = 7.40055e-10, No Iterations 6
max(U): (19.0342 0.0979243 2.14148e-31)
max/min p: 68969.9/58970.1
diagonal:  Solving for rho, Initial residual = 0, Final residual = 0, No Iterations 0
rho max/min : 0.831239 / 0.710718
time step continuity errors : sum local = 5.71992e-11, global = 2.66521e-11, cumulative = 1.13246e-10
max/min FaceAcCourant: 1.11754/0.28085
max/min Maf: 0.0565111/0
max/min kappa: 0.0967532/0
ExecutionTime = 0.44 s  ClockTime = 1 s

Mean and max Acoustic Courant Numbers = 0.483384 1.11754
Courant Number max : 0.125669 velocity magnitude: 19.1646
Time = 0.00025

diagonal:  Solving for rho, Initial residual = 0, Final residual = 0, No Iterations 0
rho max/min : 0.831239 / 0.710719
DILUPBiCG:  Solving for h, Initial residual = 0.0233931, Final residual = 2.1231e-14, No Iterations 2
max/min T: 295.47/282.535
DILUPBiCG:  Solving for p, Initial residual = 0.0235693, Final residual = 6.88296e-10, No Iterations 6
max(U): (19.0368 0.0933745 2.12952e-31)
max/min p: 68969.7/58970.3
diagonal:  Solving for rho, Initial residual = 0, Final residual = 0, No Iterations 0
rho max/min : 0.831239 / 0.710719
time step continuity errors : sum local = 5.08614e-11, global = 2.15165e-11, cumulative = 1.34763e-10
max/min FaceAcCourant: 1.11754/0.280851
max/min Maf: 0.0565088/0
max/min kappa: 0.0967664/0
ExecutionTime = 0.47 s  ClockTime = 1 s

End

