/*---------------------------------------------------------------------------*\
  =========                 |
  \\      /  F ield         | OpenFOAM: The Open Source CFD Toolbox
   \\    /   O peration     | Website:  https://openfoam.org
    \\  /    A nd           | Version:  6
     \\/     M anipulation  |
\*---------------------------------------------------------------------------*/
Build  : 6
Exec   : setFields
Date   : Aug 03 2018
Time   : 12:15:06
Host   : "bl009.unicluster.ru"
PID    : 19495
I/O    : uncollated
Case   : /lustre/unicluster/home/matvey.kraposhin/run/Unicfdlab/hybridCentralSolvers/Tutorials/compressible/RiemanToro/Test1
nProcs : 1
sigFpe : Enabling floating point exception trapping (FOAM_SIGFPE).
fileModificationChecking : Monitoring run-time modified files using timeStampMaster (fileModificationSkew 10)
allowSystemOperations : Allowing user-supplied system call operations

// * * * * * * * * * * * * * * * * * * * * * * * * * * * * * * * * * * * * * //
Create time

Create mesh for time = 0

Reading setFieldsDict

Setting field default values
    Setting internal values of volScalarField T
    Setting internal values of volScalarField p
    Setting internal values of volVectorField U

Setting field region values
    Adding cells with center within boxes 1((-1 -1 -1) (0.5 1 1))
    Setting internal values of volScalarField T
    Setting internal values of volScalarField p

End

