/*---------------------------------------------------------------------------*\
  =========                 |
  \\      /  F ield         | OpenFOAM: The Open Source CFD Toolbox
   \\    /   O peration     | Website:  https://openfoam.org
    \\  /    A nd           | Version:  6
     \\/     M anipulation  |
\*---------------------------------------------------------------------------*/
Build  : 6
Exec   : pimpleCentralFoam
Date   : Aug 03 2018
Time   : 12:15:07
Host   : "bl009.unicluster.ru"
PID    : 19516
I/O    : uncollated
Case   : /lustre/unicluster/home/matvey.kraposhin/run/Unicfdlab/hybridCentralSolvers/Tutorials/compressible/RiemanToro/Test1
nProcs : 1
sigFpe : Enabling floating point exception trapping (FOAM_SIGFPE).
fileModificationChecking : Monitoring run-time modified files using timeStampMaster (fileModificationSkew 10)
allowSystemOperations : Allowing user-supplied system call operations

// * * * * * * * * * * * * * * * * * * * * * * * * * * * * * * * * * * * * * //
Create time

Create mesh for time = 0


PIMPLE: No convergence criteria found


PIMPLE: No corrector convergence criteria found
        Calclations will do 2 corrections

Reading thermophysical properties

Selecting thermodynamics package 
{
    type            hePsiThermo;
    mixture         pureMixture;
    transport       const;
    thermo          hConst;
    equationOfState perfectGas;
    specie          specie;
    energy          sensibleEnthalpy;
}

Reading field U

Creating field kinetic energy K

Selecting finite volume kappaFunction type standardMachToAcCourantRatio
Creating turbulence model

Selecting turbulence model type laminar
Selecting laminar stress model Stokes
No finite volume options present
No MRF models present

Marking cells with bad quality to limit pressure gradient
max/min FaceAcCourant: 3.55271e-17/1.77636e-17
max/min Maf: 0/0
max/min kappa: 0/0
Courant Number max: 0

Starting time loop

Mean and max Characteristic Courant Numbers = 1.77636e-17 3.55271e-17
Courant Number max: 0
deltaT = 0.000119962
Time = 0.000119962

diagonal:  Solving for rho, Initial residual = 0, Final residual = 0, No Iterations 0
rho max/min : 0.999943 / 0.124993
PIMPLE: Iteration 1
DILUPBiCG:  Solving for h, Initial residual = 5.66032e-16, Final residual = 5.66032e-16, No Iterations 0
max/min T: 2.5/2
DILUPBiCG:  Solving for p, Initial residual = 0.000162388, Final residual = 6.71659e-23, No Iterations 1
max(U): (0.335931 0 0)
max/min p: 1.00003/0.0999831
diagonal:  Solving for rho, Initial residual = 0, Final residual = 0, No Iterations 0
rho max/min : 0.999973 / 0.124972
time step continuity errors : sum local = 1.18986e-16, global = 4.86675e-17, cumulative = 0
max/min FaceAcCourant: 0.113557/0.0507842
max/min Maf: 0.891591/0
max/min kappa: 1/0
PIMPLE: Iteration 2
DILUPBiCG:  Solving for h, Initial residual = 0.000456284, Final residual = 8.29401e-20, No Iterations 1
max/min T: 2.50002/1.9999
DILUPBiCG:  Solving for p, Initial residual = 2.89512e-05, Final residual = 6.07258e-21, No Iterations 1
max(U): (0.264433 0 0)
max/min p: 1/0.1
diagonal:  Solving for rho, Initial residual = 0, Final residual = 0, No Iterations 0
rho max/min : 0.999943 / 0.124993
time step continuity errors : sum local = 1.22008e-16, global = 4.86058e-17, cumulative = 0
DILUPBiCG:  Solving for p, Initial residual = 4.31553e-06, Final residual = 7.80907e-22, No Iterations 1
max(U): (0.259241 0 0)
max/min p: 1/0.1
diagonal:  Solving for rho, Initial residual = 0, Final residual = 0, No Iterations 0
rho max/min : 0.999943 / 0.124993
time step continuity errors : sum local = 1.29626e-16, global = 5.60386e-17, cumulative = 5.60386e-17
max/min FaceAcCourant: 0.113557/0.0507842
max/min Maf: 0.709369/0
max/min kappa: 1/0
ExecutionTime = 0.07 s  ClockTime = 0 s

Mean and max Characteristic Courant Numbers = 0.0538075 0.113557
Courant Number max: 0.139419
deltaT = 0.00014394
Time = 0.000263902

diagonal:  Solving for rho, Initial residual = 0, Final residual = 0, No Iterations 0
rho max/min : 0.999944 / 0.124993
PIMPLE: Iteration 1
DILUPBiCG:  Solving for h, Initial residual = 0.000472246, Final residual = 5.12108e-20, No Iterations 1
max/min T: 2.50457/2
DILUPBiCG:  Solving for p, Initial residual = 0.000211184, Final residual = 2.01955e-20, No Iterations 1
max(U): (0.417395 0 0)
max/min p: 1/0.1
diagonal:  Solving for rho, Initial residual = 0, Final residual = 0, No Iterations 0
rho max/min : 0.999944 / 0.124993
time step continuity errors : sum local = 1.05662e-16, global = -3.92918e-17, cumulative = 5.60386e-17
max/min FaceAcCourant: 0.136255/0.0609352
max/min Maf: 0.7092/0
max/min kappa: 1/0
PIMPLE: Iteration 2
DILUPBiCG:  Solving for h, Initial residual = 0.000102059, Final residual = 1.55346e-20, No Iterations 1
max/min T: 2.5/2
DILUPBiCG:  Solving for p, Initial residual = 3.52561e-05, Final residual = 7.57e-21, No Iterations 1
max(U): (0.440254 0 0)
max/min p: 1/0.1
diagonal:  Solving for rho, Initial residual = 0, Final residual = 0, No Iterations 0
rho max/min : 0.999943 / 0.124993
time step continuity errors : sum local = 1.03627e-16, global = -3.68245e-17, cumulative = 5.60386e-17
DILUPBiCG:  Solving for p, Initial residual = 5.57345e-06, Final residual = 1.13922e-21, No Iterations 1
max(U): (0.440745 0 0)
max/min p: 1/0.1
diagonal:  Solving for rho, Initial residual = 0, Final residual = 0, No Iterations 0
rho max/min : 0.999943 / 0.124993
time step continuity errors : sum local = 1.05601e-16, global = -3.84899e-17, cumulative = 1.75487e-17
max/min FaceAcCourant: 0.136255/0.0609352
max/min Maf: 0.618232/0
max/min kappa: 1/0
ExecutionTime = 0.08 s  ClockTime = 0 s

Mean and max Characteristic Courant Numbers = 0.0646021 0.136255
Courant Number max: 0.120792
deltaT = 0.000172708
Time = 0.00043661

diagonal:  Solving for rho, Initial residual = 0, Final residual = 0, No Iterations 0
rho max/min : 0.999943 / 0.124993
PIMPLE: Iteration 1
DILUPBiCG:  Solving for h, Initial residual = 0.000430537, Final residual = 1.38197e-19, No Iterations 1
max/min T: 2.53834/2
DILUPBiCG:  Solving for p, Initial residual = 0.000218138, Final residual = 5.51414e-20, No Iterations 1
max(U): (0.546391 0 0)
max/min p: 1/0.1
diagonal:  Solving for rho, Initial residual = 0, Final residual = 0, No Iterations 0
rho max/min : 0.999943 / 0.124993
time step continuity errors : sum local = 1.2867e-16, global = 8.8206e-18, cumulative = 1.75487e-17
max/min FaceAcCourant: 0.163487/0.0731138
max/min Maf: 0.648931/0
max/min kappa: 1/0
PIMPLE: Iteration 2
DILUPBiCG:  Solving for h, Initial residual = 0.000105632, Final residual = 1.50425e-20, No Iterations 1
max/min T: 2.51418/2
DILUPBiCG:  Solving for p, Initial residual = 3.8984e-05, Final residual = 6.97435e-21, No Iterations 1
max(U): (0.575144 0 0)
max/min p: 1/0.1
diagonal:  Solving for rho, Initial residual = 0, Final residual = 0, No Iterations 0
rho max/min : 0.999943 / 0.124993
time step continuity errors : sum local = 1.14575e-16, global = 7.00097e-18, cumulative = 1.75487e-17
DILUPBiCG:  Solving for p, Initial residual = 7.61278e-06, Final residual = 3.66616e-21, No Iterations 1
max(U): (0.574942 0 0)
max/min p: 1/0.1
diagonal:  Solving for rho, Initial residual = 0, Final residual = 0, No Iterations 0
rho max/min : 0.999943 / 0.124993
time step continuity errors : sum local = 1.1109e-16, global = 8.01873e-18, cumulative = 2.55674e-17
max/min FaceAcCourant: 0.163487/0.0731138
max/min Maf: 0.572361/0
max/min kappa: 1/0
ExecutionTime = 0.09 s  ClockTime = 0 s

Mean and max Characteristic Courant Numbers = 0.0775493 0.163487
Courant Number max: 0.12028
deltaT = 0.000207107
Time = 0.000643717

diagonal:  Solving for rho, Initial residual = 0, Final residual = 0, No Iterations 0
rho max/min : 0.999943 / 0.124993
PIMPLE: Iteration 1
DILUPBiCG:  Solving for h, Initial residual = 0.000372636, Final residual = 2.88143e-20, No Iterations 1
max/min T: 2.50894/2
DILUPBiCG:  Solving for p, Initial residual = 0.000229933, Final residual = 3.87258e-20, No Iterations 1
max(U): (0.648154 0 0)
max/min p: 1/0.1
diagonal:  Solving for rho, Initial residual = 0, Final residual = 0, No Iterations 0
rho max/min : 0.999943 / 0.124993
time step continuity errors : sum local = 1.28639e-16, global = 2.96385e-17, cumulative = 2.55674e-17
max/min FaceAcCourant: 0.196049/0.0876759
max/min Maf: 0.616694/0
max/min kappa: 1/0
PIMPLE: Iteration 2
DILUPBiCG:  Solving for h, Initial residual = 0.000104066, Final residual = 3.8981e-20, No Iterations 1
max/min T: 2.5/2
DILUPBiCG:  Solving for p, Initial residual = 3.67764e-05, Final residual = 4.35122e-21, No Iterations 1
max(U): (0.679619 0 0)
max/min p: 1/0.1
diagonal:  Solving for rho, Initial residual = 0, Final residual = 0, No Iterations 0
rho max/min : 0.999943 / 0.124993
time step continuity errors : sum local = 1.29595e-16, global = 2.52898e-17, cumulative = 2.55674e-17
DILUPBiCG:  Solving for p, Initial residual = 8.2528e-06, Final residual = 1.97127e-21, No Iterations 1
max(U): (0.678581 0 0)
max/min p: 1/0.1
diagonal:  Solving for rho, Initial residual = 0, Final residual = 0, No Iterations 0
rho max/min : 0.999943 / 0.124993
time step continuity errors : sum local = 1.3123e-16, global = 1.93992e-17, cumulative = 4.49666e-17
max/min FaceAcCourant: 0.196049/0.0876759
max/min Maf: 0.553974/0
max/min kappa: 1/0
ExecutionTime = 0.09 s  ClockTime = 0 s

Mean and max Characteristic Courant Numbers = 0.0930314 0.196049
Courant Number max: 0.130524
deltaT = 0.000248363
Time = 0.000892079

diagonal:  Solving for rho, Initial residual = 0, Final residual = 0, No Iterations 0
rho max/min : 0.999943 / 0.124993
PIMPLE: Iteration 1
DILUPBiCG:  Solving for h, Initial residual = 0.000504891, Final residual = 4.67581e-19, No Iterations 1
max/min T: 2.5/2
DILUPBiCG:  Solving for p, Initial residual = 0.000251674, Final residual = 6.99377e-20, No Iterations 1
max(U): (0.727997 0 0)
max/min p: 1/0.1
diagonal:  Solving for rho, Initial residual = 0, Final residual = 0, No Iterations 0
rho max/min : 0.999943 / 0.124993
time step continuity errors : sum local = 1.49611e-16, global = 2.24216e-17, cumulative = 4.49666e-17
max/min FaceAcCourant: 0.235103/0.105141
max/min Maf: 0.605558/0
max/min kappa: 1/0
PIMPLE: Iteration 2
DILUPBiCG:  Solving for h, Initial residual = 9.47319e-05, Final residual = 1.69665e-20, No Iterations 1
max/min T: 2.5/2
DILUPBiCG:  Solving for p, Initial residual = 2.99305e-05, Final residual = 4.02941e-21, No Iterations 1
max(U): (0.759334 0 0)
max/min p: 1/0.1
diagonal:  Solving for rho, Initial residual = 0, Final residual = 0, No Iterations 0
rho max/min : 0.999943 / 0.124993
time step continuity errors : sum local = 1.50444e-16, global = 1.01159e-17, cumulative = 4.49666e-17
DILUPBiCG:  Solving for p, Initial residual = 6.2625e-06, Final residual = 1.63575e-21, No Iterations 1
max(U): (0.757773 0 0)
max/min p: 1/0.1
diagonal:  Solving for rho, Initial residual = 0, Final residual = 0, No Iterations 0
rho max/min : 0.999943 / 0.124993
time step continuity errors : sum local = 1.45818e-16, global = 1.33234e-17, cumulative = 5.829e-17
max/min FaceAcCourant: 0.235103/0.105141
max/min Maf: 0.618893/0
max/min kappa: 1/0
ExecutionTime = 0.1 s  ClockTime = 0 s

Mean and max Characteristic Courant Numbers = 0.111612 0.235103
Courant Number max: 0.150487
deltaT = 0.00029762
Time = 0.0011897

diagonal:  Solving for rho, Initial residual = 0, Final residual = 0, No Iterations 0
rho max/min : 0.999943 / 0.124993
PIMPLE: Iteration 1
DILUPBiCG:  Solving for h, Initial residual = 0.000651491, Final residual = 2.23689e-19, No Iterations 1
max/min T: 2.51355/2
DILUPBiCG:  Solving for p, Initial residual = 0.000281754, Final residual = 3.39452e-20, No Iterations 1
max(U): (0.789141 0 0)
max/min p: 1/0.1
diagonal:  Solving for rho, Initial residual = 0, Final residual = 0, No Iterations 0
rho max/min : 0.999943 / 0.124993
time step continuity errors : sum local = 1.36874e-16, global = -3.21366e-17, cumulative = 5.829e-17
max/min FaceAcCourant: 0.28173/0.125994
max/min Maf: 0.683285/0
max/min kappa: 1/0
PIMPLE: Iteration 2
DILUPBiCG:  Solving for h, Initial residual = 9.66945e-05, Final residual = 2.22408e-20, No Iterations 1
max/min T: 2.51011/2
DILUPBiCG:  Solving for p, Initial residual = 2.64904e-05, Final residual = 7.2899e-21, No Iterations 1
max(U): (0.816185 0 0)
max/min p: 1/0.1
diagonal:  Solving for rho, Initial residual = 0, Final residual = 0, No Iterations 0
rho max/min : 0.999943 / 0.124993
time step continuity errors : sum local = 1.37336e-16, global = -1.43412e-17, cumulative = 5.829e-17
DILUPBiCG:  Solving for p, Initial residual = 2.60318e-06, Final residual = 3.19518e-22, No Iterations 1
max(U): (0.815476 0 0)
max/min p: 1/0.1
diagonal:  Solving for rho, Initial residual = 0, Final residual = 0, No Iterations 0
rho max/min : 0.999943 / 0.124993
time step continuity errors : sum local = 1.39156e-16, global = -2.47347e-17, cumulative = 3.35553e-17
max/min FaceAcCourant: 0.28173/0.125994
max/min Maf: 0.699722/0
max/min kappa: 1/0
ExecutionTime = 0.12 s  ClockTime = 0 s

Mean and max Characteristic Courant Numbers = 0.133824 0.28173
Courant Number max: 0.179605
deltaT = 0.000347016
Time = 0.00153672

diagonal:  Solving for rho, Initial residual = 0, Final residual = 0, No Iterations 0
rho max/min : 0.999943 / 0.124993
PIMPLE: Iteration 1
DILUPBiCG:  Solving for h, Initial residual = 0.000820507, Final residual = 3.85232e-19, No Iterations 1
max/min T: 2.56152/2
DILUPBiCG:  Solving for p, Initial residual = 0.000323058, Final residual = 1.2577e-19, No Iterations 1
max(U): (0.830781 0 0)
max/min p: 1/0.1
diagonal:  Solving for rho, Initial residual = 0, Final residual = 0, No Iterations 0
rho max/min : 0.999943 / 0.124993
time step continuity errors : sum local = 1.38817e-16, global = -2.3902e-17, cumulative = 3.35553e-17
max/min FaceAcCourant: 0.328489/0.146905
max/min Maf: 0.756285/0
max/min kappa: 1/0
PIMPLE: Iteration 2
DILUPBiCG:  Solving for h, Initial residual = 0.000194324, Final residual = 2.2095e-20, No Iterations 1
max/min T: 2.5247/2
DILUPBiCG:  Solving for p, Initial residual = 2.9427e-05, Final residual = 6.83973e-21, No Iterations 1
max(U): (0.853491 0 0)
max/min p: 1/0.1
diagonal:  Solving for rho, Initial residual = 0, Final residual = 0, No Iterations 0
rho max/min : 0.999943 / 0.124993
time step continuity errors : sum local = 1.32062e-16, global = -2.26992e-17, cumulative = 3.35553e-17
DILUPBiCG:  Solving for p, Initial residual = 8.4295e-06, Final residual = 3.51653e-21, No Iterations 1
max(U): (0.853502 0 0)
max/min p: 1/0.1
diagonal:  Solving for rho, Initial residual = 0, Final residual = 0, No Iterations 0
rho max/min : 0.999943 / 0.124993
time step continuity errors : sum local = 1.33974e-16, global = -1.22748e-17, cumulative = 2.12805e-17
max/min FaceAcCourant: 0.328489/0.146905
max/min Maf: 0.761408/0
max/min kappa: 1/0
ExecutionTime = 0.12 s  ClockTime = 0 s

Mean and max Characteristic Courant Numbers = 0.156134 0.328489
Courant Number max: 0.226562
deltaT = 0.000392517
Time = 0.00192923

diagonal:  Solving for rho, Initial residual = 0, Final residual = 0, No Iterations 0
rho max/min : 0.999943 / 0.124993
PIMPLE: Iteration 1
DILUPBiCG:  Solving for h, Initial residual = 0.000930365, Final residual = 3.41017e-19, No Iterations 1
max/min T: 2.56423/2
DILUPBiCG:  Solving for p, Initial residual = 0.000365645, Final residual = 7.96743e-20, No Iterations 1
max(U): (0.864101 0 0)
max/min p: 1/0.1
diagonal:  Solving for rho, Initial residual = 0, Final residual = 0, No Iterations 0
rho max/min : 0.999943 / 0.124993
time step continuity errors : sum local = 1.48377e-16, global = 9.46827e-18, cumulative = 2.12805e-17
max/min FaceAcCourant: 0.371561/0.166167
max/min Maf: 0.791947/0
max/min kappa: 1/0
PIMPLE: Iteration 2
DILUPBiCG:  Solving for h, Initial residual = 0.000268362, Final residual = 7.51276e-19, No Iterations 1
max/min T: 2.58422/2
DILUPBiCG:  Solving for p, Initial residual = 4.1176e-05, Final residual = 4.22966e-21, No Iterations 1
max(U): (0.879316 0 0)
max/min p: 1/0.1
diagonal:  Solving for rho, Initial residual = 0, Final residual = 0, No Iterations 0
rho max/min : 0.999943 / 0.124993
time step continuity errors : sum local = 1.50043e-16, global = -7.55611e-18, cumulative = 2.12805e-17
DILUPBiCG:  Solving for p, Initial residual = 1.19113e-05, Final residual = 2.29328e-21, No Iterations 1
max(U): (0.879486 0 0)
max/min p: 1/0.1
diagonal:  Solving for rho, Initial residual = 0, Final residual = 0, No Iterations 0
rho max/min : 0.999943 / 0.124993
time step continuity errors : sum local = 1.54484e-16, global = 3.42338e-18, cumulative = 2.47039e-17
max/min FaceAcCourant: 0.371561/0.166167
max/min Maf: 0.795251/0
max/min kappa: 1/0
ExecutionTime = 0.13 s  ClockTime = 0 s

Mean and max Characteristic Courant Numbers = 0.176742 0.371561
Courant Number max: 0.277321
deltaT = 0.000424053
Time = 0.00235328

diagonal:  Solving for rho, Initial residual = 0, Final residual = 0, No Iterations 0
rho max/min : 0.999943 / 0.124993
PIMPLE: Iteration 1
DILUPBiCG:  Solving for h, Initial residual = 0.0011161, Final residual = 3.1488e-19, No Iterations 1
max/min T: 2.6651/2
DILUPBiCG:  Solving for p, Initial residual = 0.000393918, Final residual = 3.8039e-20, No Iterations 1
max(U): (0.905297 0 0)
max/min p: 1/0.1
diagonal:  Solving for rho, Initial residual = 0, Final residual = 0, No Iterations 0
rho max/min : 0.999943 / 0.124993
time step continuity errors : sum local = 1.52387e-16, global = 1.39711e-17, cumulative = 2.47039e-17
max/min FaceAcCourant: 0.401413/0.179517
max/min Maf: 0.812985/0
max/min kappa: 1/0
PIMPLE: Iteration 2
DILUPBiCG:  Solving for h, Initial residual = 0.000257148, Final residual = 3.55907e-20, No Iterations 1
max/min T: 2.64724/2
DILUPBiCG:  Solving for p, Initial residual = 3.50325e-05, Final residual = 1.2628e-20, No Iterations 1
max(U): (0.916513 0 0)
max/min p: 1/0.1
diagonal:  Solving for rho, Initial residual = 0, Final residual = 0, No Iterations 0
rho max/min : 0.999943 / 0.124993
time step continuity errors : sum local = 1.48963e-16, global = 1.46804e-17, cumulative = 2.47039e-17
DILUPBiCG:  Solving for p, Initial residual = 6.11031e-06, Final residual = 5.76713e-21, No Iterations 1
max(U): (0.916521 0 0)
max/min p: 1/0.1
diagonal:  Solving for rho, Initial residual = 0, Final residual = 0, No Iterations 0
rho max/min : 0.999943 / 0.124993
time step continuity errors : sum local = 1.55255e-16, global = 5.92152e-18, cumulative = 3.06254e-17
max/min FaceAcCourant: 0.401413/0.179517
max/min Maf: 0.816546/0
max/min kappa: 1/0
ExecutionTime = 0.14 s  ClockTime = 0 s

Mean and max Characteristic Courant Numbers = 0.1911 0.401413
Courant Number max: 0.317829
deltaT = 0.000400075
Time = 0.00275336

diagonal:  Solving for rho, Initial residual = 0, Final residual = 0, No Iterations 0
rho max/min : 0.999943 / 0.124993
PIMPLE: Iteration 1
DILUPBiCG:  Solving for h, Initial residual = 0.00109762, Final residual = 1.06514e-19, No Iterations 1
max/min T: 2.65167/2
DILUPBiCG:  Solving for p, Initial residual = 0.000368474, Final residual = 8.10603e-20, No Iterations 1
max(U): (0.937556 0 0)
max/min p: 1/0.1
diagonal:  Solving for rho, Initial residual = 0, Final residual = 0, No Iterations 0
rho max/min : 0.999943 / 0.124993
time step continuity errors : sum local = 1.4995e-16, global = -1.47421e-17, cumulative = 3.06254e-17
max/min FaceAcCourant: 0.378716/0.169367
max/min Maf: 0.856288/0
max/min kappa: 1/0
PIMPLE: Iteration 2
DILUPBiCG:  Solving for h, Initial residual = 0.000257245, Final residual = 1.37486e-18, No Iterations 1
max/min T: 2.63729/2
DILUPBiCG:  Solving for p, Initial residual = 3.04946e-05, Final residual = 7.18925e-21, No Iterations 1
max(U): (0.942412 0 0)
max/min p: 1/0.1
diagonal:  Solving for rho, Initial residual = 0, Final residual = 0, No Iterations 0
rho max/min : 0.999943 / 0.124993
time step continuity errors : sum local = 1.55687e-16, global = -1.72711e-17, cumulative = 3.06254e-17
DILUPBiCG:  Solving for p, Initial residual = 8.52721e-06, Final residual = 2.14281e-21, No Iterations 1
max(U): (0.941286 0 0)
max/min p: 1/0.1
diagonal:  Solving for rho, Initial residual = 0, Final residual = 0, No Iterations 0
rho max/min : 0.999943 / 0.124993
time step continuity errors : sum local = 1.47884e-16, global = -2.22982e-17, cumulative = 8.32714e-18
max/min FaceAcCourant: 0.378716/0.169367
max/min Maf: 0.858151/0
max/min kappa: 1/0
ExecutionTime = 0.15 s  ClockTime = 0 s

Mean and max Characteristic Courant Numbers = 0.180439 0.378716
Courant Number max: 0.316926
deltaT = 0.000378632
Time = 0.00313199

diagonal:  Solving for rho, Initial residual = 0, Final residual = 0, No Iterations 0
rho max/min : 0.999943 / 0.124993
PIMPLE: Iteration 1
DILUPBiCG:  Solving for h, Initial residual = 0.00108083, Final residual = 1.28279e-19, No Iterations 1
max/min T: 2.66767/1.96623
DILUPBiCG:  Solving for p, Initial residual = 0.000356388, Final residual = 1.81427e-19, No Iterations 1
max(U): (0.956881 0 0)
max/min p: 1/0.1
diagonal:  Solving for rho, Initial residual = 0, Final residual = 0, No Iterations 0
rho max/min : 0.999943 / 0.124993
time step continuity errors : sum local = 1.48192e-16, global = 3.60843e-18, cumulative = 8.32714e-18
max/min FaceAcCourant: 0.358417/0.160289
max/min Maf: 0.933544/0
max/min kappa: 1/0
PIMPLE: Iteration 2
DILUPBiCG:  Solving for h, Initial residual = 0.000218622, Final residual = 8.43448e-20, No Iterations 1
max/min T: 2.65177/1.97534
DILUPBiCG:  Solving for p, Initial residual = 4.18448e-05, Final residual = 2.38854e-20, No Iterations 1
max(U): (0.954021 0 0)
max/min p: 1/0.1
diagonal:  Solving for rho, Initial residual = 0, Final residual = 0, No Iterations 0
rho max/min : 0.999943 / 0.124993
time step continuity errors : sum local = 1.34961e-16, global = -6.16825e-18, cumulative = 8.32714e-18
DILUPBiCG:  Solving for p, Initial residual = 5.57219e-06, Final residual = 2.50192e-21, No Iterations 1
max(U): (0.954605 0 0)
max/min p: 1/0.1
diagonal:  Solving for rho, Initial residual = 0, Final residual = 0, No Iterations 0
rho max/min : 0.999943 / 0.124993
time step continuity errors : sum local = 1.42147e-16, global = -5.33554e-18, cumulative = 2.9916e-18
max/min FaceAcCourant: 0.358417/0.160289
max/min Maf: 0.877885/0
max/min kappa: 1/0
ExecutionTime = 0.16 s  ClockTime = 0 s

Mean and max Characteristic Courant Numbers = 0.170906 0.358417
Courant Number max: 0.303713
deltaT = 0.000373477
Time = 0.00350547

diagonal:  Solving for rho, Initial residual = 0, Final residual = 0, No Iterations 0
rho max/min : 0.999943 / 0.124993
PIMPLE: Iteration 1
DILUPBiCG:  Solving for h, Initial residual = 0.00112812, Final residual = 2.62057e-19, No Iterations 1
max/min T: 2.69623/1.93774
DILUPBiCG:  Solving for p, Initial residual = 0.00035297, Final residual = 1.30329e-19, No Iterations 1
max(U): (0.963885 0 0)
max/min p: 1/0.1
diagonal:  Solving for rho, Initial residual = 0, Final residual = 0, No Iterations 0
rho max/min : 0.999943 / 0.124993
time step continuity errors : sum local = 1.40821e-16, global = -2.71403e-18, cumulative = 2.9916e-18
max/min FaceAcCourant: 0.353537/0.158106
max/min Maf: 0.893134/0
max/min kappa: 1/0
PIMPLE: Iteration 2
DILUPBiCG:  Solving for h, Initial residual = 0.000193929, Final residual = 1.71593e-19, No Iterations 1
max/min T: 2.66886/1.94549
DILUPBiCG:  Solving for p, Initial residual = 2.77859e-05, Final residual = 1.48733e-20, No Iterations 1
max(U): (0.962826 0 0)
max/min p: 1/0.1
diagonal:  Solving for rho, Initial residual = 0, Final residual = 0, No Iterations 0
rho max/min : 0.999943 / 0.124993
time step continuity errors : sum local = 1.49549e-16, global = 2.77571e-19, cumulative = 2.9916e-18
DILUPBiCG:  Solving for p, Initial residual = 3.76413e-06, Final residual = 2.34339e-21, No Iterations 1
max(U): (0.96296 0 0)
max/min p: 1/0.1
diagonal:  Solving for rho, Initial residual = 0, Final residual = 0, No Iterations 0
rho max/min : 0.999943 / 0.124993
time step continuity errors : sum local = 1.46003e-16, global = -2.52898e-18, cumulative = 4.62619e-19
max/min FaceAcCourant: 0.353537/0.158106
max/min Maf: 0.893608/0
max/min kappa: 1/0
ExecutionTime = 0.17 s  ClockTime = 0 s

Mean and max Characteristic Courant Numbers = 0.168709 0.353537
Courant Number max: 0.297914
deltaT = 0.000375754
Time = 0.00388122

diagonal:  Solving for rho, Initial residual = 0, Final residual = 0, No Iterations 0
rho max/min : 0.999943 / 0.124993
PIMPLE: Iteration 1
DILUPBiCG:  Solving for h, Initial residual = 0.00111759, Final residual = 2.21694e-19, No Iterations 1
max/min T: 2.69488/1.91282
DILUPBiCG:  Solving for p, Initial residual = 0.000353938, Final residual = 1.0419e-19, No Iterations 1
max(U): (0.968173 0 0)
max/min p: 1/0.1
diagonal:  Solving for rho, Initial residual = 0, Final residual = 0, No Iterations 0
rho max/min : 0.999943 / 0.124993
time step continuity errors : sum local = 1.45417e-16, global = 9.90005e-18, cumulative = 4.62619e-19
max/min FaceAcCourant: 0.355692/0.15907
max/min Maf: 0.903083/0
max/min kappa: 1/0
PIMPLE: Iteration 2
DILUPBiCG:  Solving for h, Initial residual = 0.000210667, Final residual = 9.31158e-20, No Iterations 1
max/min T: 2.68/1.9195
DILUPBiCG:  Solving for p, Initial residual = 2.85607e-05, Final residual = 1.25339e-20, No Iterations 1
max(U): (0.967187 0 0)
max/min p: 1/0.1
diagonal:  Solving for rho, Initial residual = 0, Final residual = 0, No Iterations 0
rho max/min : 0.999943 / 0.124993
time step continuity errors : sum local = 1.37089e-16, global = 1.38786e-18, cumulative = 4.62619e-19
DILUPBiCG:  Solving for p, Initial residual = 5.96066e-06, Final residual = 7.90037e-21, No Iterations 1
max(U): (0.96733 0 0)
max/min p: 1/0.1
diagonal:  Solving for rho, Initial residual = 0, Final residual = 0, No Iterations 0
rho max/min : 0.999943 / 0.124993
time step continuity errors : sum local = 1.46774e-16, global = 5.829e-18, cumulative = 6.29162e-18
max/min FaceAcCourant: 0.355692/0.15907
max/min Maf: 0.904545/0
max/min kappa: 1/0
ExecutionTime = 0.17 s  ClockTime = 0 s

Mean and max Characteristic Courant Numbers = 0.169869 0.355692
Courant Number max: 0.297774
deltaT = 0.000378063
Time = 0.00425929

diagonal:  Solving for rho, Initial residual = 0, Final residual = 0, No Iterations 0
rho max/min : 0.999943 / 0.124993
PIMPLE: Iteration 1
DILUPBiCG:  Solving for h, Initial residual = 0.00114619, Final residual = 9.29514e-20, No Iterations 1
max/min T: 2.71626/1.88342
DILUPBiCG:  Solving for p, Initial residual = 0.000353299, Final residual = 3.57176e-20, No Iterations 1
max(U): (0.969405 0 0)
max/min p: 1/0.1
diagonal:  Solving for rho, Initial residual = 0, Final residual = 0, No Iterations 0
rho max/min : 0.999943 / 0.124993
time step continuity errors : sum local = 1.41315e-16, global = -1.77646e-17, cumulative = 6.29162e-18
max/min FaceAcCourant: 0.357878/0.160048
max/min Maf: 0.911665/0
max/min kappa: 1/0
PIMPLE: Iteration 2
DILUPBiCG:  Solving for h, Initial residual = 0.000185879, Final residual = 4.96615e-20, No Iterations 1
max/min T: 2.69965/1.88774
DILUPBiCG:  Solving for p, Initial residual = 2.58123e-05, Final residual = 6.8063e-21, No Iterations 1
max(U): (0.968341 0 0)
max/min p: 1/0.1
diagonal:  Solving for rho, Initial residual = 0, Final residual = 0, No Iterations 0
rho max/min : 0.999943 / 0.124993
time step continuity errors : sum local = 1.38231e-16, global = -1.21515e-17, cumulative = 6.29162e-18
DILUPBiCG:  Solving for p, Initial residual = 2.25106e-06, Final residual = 2.06902e-21, No Iterations 1
max(U): (0.968551 0 0)
max/min p: 1/0.1
diagonal:  Solving for rho, Initial residual = 0, Final residual = 0, No Iterations 0
rho max/min : 0.999943 / 0.124993
time step continuity errors : sum local = 1.47421e-16, global = -1.54206e-17, cumulative = -9.12902e-18
max/min FaceAcCourant: 0.357878/0.160048
max/min Maf: 0.912347/0
max/min kappa: 1/0
ExecutionTime = 0.18 s  ClockTime = 0 s

Mean and max Characteristic Courant Numbers = 0.171041 0.357878
Courant Number max: 0.297387
deltaT = 0.000380993
Time = 0.00464028

diagonal:  Solving for rho, Initial residual = 0, Final residual = 0, No Iterations 0
rho max/min : 0.999943 / 0.124993
PIMPLE: Iteration 1
DILUPBiCG:  Solving for h, Initial residual = 0.00117075, Final residual = 2.44486e-19, No Iterations 1
max/min T: 2.72668/1.85475
DILUPBiCG:  Solving for p, Initial residual = 0.000353071, Final residual = 7.99523e-20, No Iterations 1
max(U): (0.968317 0 0)
max/min p: 1/0.1
diagonal:  Solving for rho, Initial residual = 0, Final residual = 0, No Iterations 0
rho max/min : 0.999943 / 0.124993
time step continuity errors : sum local = 1.39526e-16, global = 2.17739e-17, cumulative = -9.12902e-18
max/min FaceAcCourant: 0.360652/0.161289
max/min Maf: 0.918071/0
max/min kappa: 1/0
PIMPLE: Iteration 2
DILUPBiCG:  Solving for h, Initial residual = 0.000184478, Final residual = 2.55674e-20, No Iterations 1
max/min T: 2.71476/1.85908
DILUPBiCG:  Solving for p, Initial residual = 2.46637e-05, Final residual = 2.26961e-20, No Iterations 1
max(U): (0.967615 0 0)
max/min p: 1/0.1
diagonal:  Solving for rho, Initial residual = 0, Final residual = 0, No Iterations 0
rho max/min : 0.999943 / 0.124993
time step continuity errors : sum local = 1.55008e-16, global = 2.33777e-17, cumulative = -9.12902e-18
DILUPBiCG:  Solving for p, Initial residual = 3.85756e-06, Final residual = 4.61859e-22, No Iterations 1
max(U): (0.967799 0 0)
max/min p: 1/0.1
diagonal:  Solving for rho, Initial residual = 0, Final residual = 0, No Iterations 0
rho max/min : 0.999943 / 0.124993
time step continuity errors : sum local = 1.40605e-16, global = 1.24907e-17, cumulative = 3.3617e-18
max/min FaceAcCourant: 0.360652/0.161289
max/min Maf: 0.91826/0
max/min kappa: 1/0
ExecutionTime = 0.2 s  ClockTime = 0 s

Mean and max Characteristic Courant Numbers = 0.172494 0.360652
Courant Number max: 0.29763
deltaT = 0.000383975
Time = 0.00502425

diagonal:  Solving for rho, Initial residual = 0, Final residual = 0, No Iterations 0
rho max/min : 0.999943 / 0.124993
PIMPLE: Iteration 1
DILUPBiCG:  Solving for h, Initial residual = 0.00118672, Final residual = 2.35286e-19, No Iterations 1
max/min T: 2.7516/1.82972
DILUPBiCG:  Solving for p, Initial residual = 0.000354446, Final residual = 3.74232e-20, No Iterations 1
max(U): (0.966144 0 0)
max/min p: 1/0.1
diagonal:  Solving for rho, Initial residual = 0, Final residual = 0, No Iterations 0
rho max/min : 0.999943 / 0.124993
time step continuity errors : sum local = 1.50536e-16, global = -2.38403e-17, cumulative = 3.3617e-18
max/min FaceAcCourant: 0.363474/0.162551
max/min Maf: 0.924816/0
max/min kappa: 1/0
PIMPLE: Iteration 2
DILUPBiCG:  Solving for h, Initial residual = 0.000177142, Final residual = 1.01586e-20, No Iterations 1
max/min T: 2.74/1.8339
DILUPBiCG:  Solving for p, Initial residual = 2.45411e-05, Final residual = 2.36077e-20, No Iterations 1
max(U): (0.96575 0 0)
max/min p: 1/0.1
diagonal:  Solving for rho, Initial residual = 0, Final residual = 0, No Iterations 0
rho max/min : 0.999943 / 0.124993
time step continuity errors : sum local = 1.53898e-16, global = -1.46188e-17, cumulative = 3.3617e-18
DILUPBiCG:  Solving for p, Initial residual = 3.03153e-06, Final residual = 1.98804e-21, No Iterations 1
max(U): (0.965921 0 0)
max/min p: 1/0.1
diagonal:  Solving for rho, Initial residual = 0, Final residual = 0, No Iterations 0
rho max/min : 0.999943 / 0.124993
time step continuity errors : sum local = 1.40698e-16, global = -8.1421e-18, cumulative = -4.7804e-18
max/min FaceAcCourant: 0.363474/0.162551
max/min Maf: 0.923987/0
max/min kappa: 1/0
ExecutionTime = 0.21 s  ClockTime = 0 s

Mean and max Characteristic Courant Numbers = 0.173975 0.363474
Courant Number max: 0.29817
deltaT = 0.000385789
Time = 0.00541004

diagonal:  Solving for rho, Initial residual = 0, Final residual = 0, No Iterations 0
rho max/min : 0.999943 / 0.124993
PIMPLE: Iteration 1
DILUPBiCG:  Solving for h, Initial residual = 0.00121599, Final residual = 9.90614e-20, No Iterations 1
max/min T: 2.75643/1.80857
DILUPBiCG:  Solving for p, Initial residual = 0.000354903, Final residual = 4.67885e-20, No Iterations 1
max(U): (0.963548 0 0)
max/min p: 1/0.1
diagonal:  Solving for rho, Initial residual = 0, Final residual = 0, No Iterations 0
rho max/min : 0.999943 / 0.124993
time step continuity errors : sum local = 1.53034e-16, global = 3.83049e-17, cumulative = -4.7804e-18
max/min FaceAcCourant: 0.365191/0.163319
max/min Maf: 0.930214/0
max/min kappa: 1/0
PIMPLE: Iteration 2
DILUPBiCG:  Solving for h, Initial residual = 0.000174859, Final residual = 2.26757e-20, No Iterations 1
max/min T: 2.74049/1.81245
DILUPBiCG:  Solving for p, Initial residual = 2.32759e-05, Final residual = 1.34992e-20, No Iterations 1
max(U): (0.963435 0 0)
max/min p: 1/0.1
diagonal:  Solving for rho, Initial residual = 0, Final residual = 0, No Iterations 0
rho max/min : 0.999943 / 0.124993
time step continuity errors : sum local = 1.45663e-16, global = 2.28534e-17, cumulative = -4.7804e-18
DILUPBiCG:  Solving for p, Initial residual = 3.03544e-06, Final residual = 2.49556e-21, No Iterations 1
max(U): (0.963579 0 0)
max/min p: 1/0.1
diagonal:  Solving for rho, Initial residual = 0, Final residual = 0, No Iterations 0
rho max/min : 0.999943 / 0.124993
time step continuity errors : sum local = 1.56735e-16, global = 2.87441e-17, cumulative = 2.39637e-17
max/min FaceAcCourant: 0.365191/0.163319
max/min Maf: 0.929724/0
max/min kappa: 1/0
ExecutionTime = 0.22 s  ClockTime = 0 s

Mean and max Characteristic Courant Numbers = 0.174929 0.365191
Courant Number max: 0.298138
deltaT = 0.000387623
Time = 0.00579766

diagonal:  Solving for rho, Initial residual = 0, Final residual = 0, No Iterations 0
rho max/min : 0.999943 / 0.124993
PIMPLE: Iteration 1
DILUPBiCG:  Solving for h, Initial residual = 0.00121106, Final residual = 1.95155e-19, No Iterations 1
max/min T: 2.76729/1.79119
DILUPBiCG:  Solving for p, Initial residual = 0.000356426, Final residual = 2.992e-20, No Iterations 1
max(U): (0.96099 0 0)
max/min p: 1/0.1
diagonal:  Solving for rho, Initial residual = 0, Final residual = 0, No Iterations 0
rho max/min : 0.999943 / 0.124993
time step continuity errors : sum local = 1.57414e-16, global = 8.20378e-18, cumulative = 2.39637e-17
max/min FaceAcCourant: 0.366928/0.164095
max/min Maf: 0.935233/0
max/min kappa: 1/0
PIMPLE: Iteration 2
DILUPBiCG:  Solving for h, Initial residual = 0.00016467, Final residual = 2.64601e-20, No Iterations 1
max/min T: 2.76078/1.79466
DILUPBiCG:  Solving for p, Initial residual = 2.56473e-05, Final residual = 1.06753e-20, No Iterations 1
max(U): (0.961063 0 0)
max/min p: 1/0.1
diagonal:  Solving for rho, Initial residual = 0, Final residual = 0, No Iterations 0
rho max/min : 0.999943 / 0.124993
time step continuity errors : sum local = 1.49148e-16, global = 5.24302e-18, cumulative = 2.39637e-17
DILUPBiCG:  Solving for p, Initial residual = 6.75608e-06, Final residual = 1.83047e-20, No Iterations 1
max(U): (0.961186 0 0)
max/min p: 1/0.1
diagonal:  Solving for rho, Initial residual = 0, Final residual = 0, No Iterations 0
rho max/min : 0.999943 / 0.124993
time step continuity errors : sum local = 1.58863e-16, global = 1.16888e-17, cumulative = 3.56525e-17
max/min FaceAcCourant: 0.366928/0.164095
max/min Maf: 0.934823/0
max/min kappa: 1/0
ExecutionTime = 0.23 s  ClockTime = 0 s

Mean and max Characteristic Courant Numbers = 0.175894 0.366928
Courant Number max: 0.298448
deltaT = 0.000389477
Time = 0.00618714

diagonal:  Solving for rho, Initial residual = 0, Final residual = 0, No Iterations 0
rho max/min : 0.999943 / 0.124993
PIMPLE: Iteration 1
DILUPBiCG:  Solving for h, Initial residual = 0.00124751, Final residual = 2.88462e-19, No Iterations 1
max/min T: 2.77964/1.77726
DILUPBiCG:  Solving for p, Initial residual = 0.000358012, Final residual = 1.65399e-19, No Iterations 1
max(U): (0.958611 0 0)
max/min p: 1/0.1
diagonal:  Solving for rho, Initial residual = 0, Final residual = 0, No Iterations 0
rho max/min : 0.999943 / 0.124993
time step continuity errors : sum local = 1.54237e-16, global = -2.25141e-18, cumulative = 3.56525e-17
max/min FaceAcCourant: 0.368683/0.16488
max/min Maf: 0.939281/0
max/min kappa: 1/0
PIMPLE: Iteration 2
DILUPBiCG:  Solving for h, Initial residual = 0.000163753, Final residual = 3.82171e-20, No Iterations 1
max/min T: 2.77088/1.78032
DILUPBiCG:  Solving for p, Initial residual = 2.25193e-05, Final residual = 2.71306e-20, No Iterations 1
max(U): (0.958832 0 0)
max/min p: 1/0.1
diagonal:  Solving for rho, Initial residual = 0, Final residual = 0, No Iterations 0
rho max/min : 0.999943 / 0.124993
time step continuity errors : sum local = 1.39958e-16, global = -9.25238e-18, cumulative = 3.56525e-17
DILUPBiCG:  Solving for p, Initial residual = 2.78852e-06, Final residual = 1.45635e-21, No Iterations 1
max(U): (0.958936 0 0)
max/min p: 1/0.1
diagonal:  Solving for rho, Initial residual = 0, Final residual = 0, No Iterations 0
rho max/min : 0.999943 / 0.124993
time step continuity errors : sum local = 1.55903e-16, global = -7.61779e-18, cumulative = 2.80347e-17
max/min FaceAcCourant: 0.368683/0.16488
max/min Maf: 0.938997/0
max/min kappa: 1/0
ExecutionTime = 0.23 s  ClockTime = 0 s

Mean and max Characteristic Courant Numbers = 0.176871 0.368683
Courant Number max: 0.298988
deltaT = 0.000390726
Time = 0.00657787

diagonal:  Solving for rho, Initial residual = 0, Final residual = 0, No Iterations 0
rho max/min : 0.999943 / 0.124993
PIMPLE: Iteration 1
DILUPBiCG:  Solving for h, Initial residual = 0.00125443, Final residual = 3.69028e-19, No Iterations 1
max/min T: 2.7884/1.76647
DILUPBiCG:  Solving for p, Initial residual = 0.000358716, Final residual = 7.40163e-20, No Iterations 1
max(U): (0.956489 0 0)
max/min p: 1/0.1
diagonal:  Solving for rho, Initial residual = 0, Final residual = 0, No Iterations 0
rho max/min : 0.999943 / 0.124993
time step continuity errors : sum local = 1.56334e-16, global = 7.74116e-18, cumulative = 2.80347e-17
max/min FaceAcCourant: 0.369865/0.165409
max/min Maf: 0.942483/0
max/min kappa: 1/0
PIMPLE: Iteration 2
DILUPBiCG:  Solving for h, Initial residual = 0.000158114, Final residual = 3.01197e-20, No Iterations 1
max/min T: 2.77793/1.76916
DILUPBiCG:  Solving for p, Initial residual = 2.26618e-05, Final residual = 1.59474e-20, No Iterations 1
max(U): (0.956802 0 0)
max/min p: 1/0.1
diagonal:  Solving for rho, Initial residual = 0, Final residual = 0, No Iterations 0
rho max/min : 0.999943 / 0.124993
time step continuity errors : sum local = 1.514e-16, global = 1.06402e-17, cumulative = 2.80347e-17
DILUPBiCG:  Solving for p, Initial residual = 5.35854e-06, Final residual = 1.12391e-20, No Iterations 1
max(U): (0.956892 0 0)
max/min p: 1/0.1
diagonal:  Solving for rho, Initial residual = 0, Final residual = 0, No Iterations 0
rho max/min : 0.999943 / 0.124993
time step continuity errors : sum local = 1.54299e-16, global = 1.04552e-17, cumulative = 3.84899e-17
max/min FaceAcCourant: 0.369865/0.165409
max/min Maf: 0.942315/0
max/min kappa: 1/0
ExecutionTime = 0.24 s  ClockTime = 0 s

Mean and max Characteristic Courant Numbers = 0.177573 0.369865
Courant Number max: 0.299198
deltaT = 0.000391354
Time = 0.00696922

diagonal:  Solving for rho, Initial residual = 0, Final residual = 0, No Iterations 0
rho max/min : 0.999943 / 0.124993
PIMPLE: Iteration 1
DILUPBiCG:  Solving for h, Initial residual = 0.00126468, Final residual = 8.22266e-20, No Iterations 1
max/min T: 2.79849/1.75845
DILUPBiCG:  Solving for p, Initial residual = 0.00035961, Final residual = 1.13992e-19, No Iterations 1
max(U): (0.954611 0 0)
max/min p: 1/0.1
diagonal:  Solving for rho, Initial residual = 0, Final residual = 0, No Iterations 0
rho max/min : 0.999943 / 0.124993
time step continuity errors : sum local = 1.44892e-16, global = 4.9346e-18, cumulative = 3.84899e-17
max/min FaceAcCourant: 0.37046/0.165675
max/min Maf: 0.944943/0
max/min kappa: 1/0
PIMPLE: Iteration 2
DILUPBiCG:  Solving for h, Initial residual = 0.000153254, Final residual = 2.12626e-20, No Iterations 1
max/min T: 2.78965/1.76082
DILUPBiCG:  Solving for p, Initial residual = 2.15686e-05, Final residual = 3.47876e-20, No Iterations 1
max(U): (0.954968 0 0)
max/min p: 1/0.1
diagonal:  Solving for rho, Initial residual = 0, Final residual = 0, No Iterations 0
rho max/min : 0.999943 / 0.124993
time step continuity errors : sum local = 1.52047e-16, global = 1.1658e-17, cumulative = 3.84899e-17
DILUPBiCG:  Solving for p, Initial residual = 1.80483e-06, Final residual = 6.10186e-22, No Iterations 1
max(U): (0.955048 0 0)
max/min p: 1/0.1
diagonal:  Solving for rho, Initial residual = 0, Final residual = 0, No Iterations 0
rho max/min : 0.999943 / 0.124993
time step continuity errors : sum local = 1.52664e-16, global = 1.35702e-18, cumulative = 3.98469e-17
max/min FaceAcCourant: 0.37046/0.165675
max/min Maf: 0.944884/0
max/min kappa: 1/0
ExecutionTime = 0.25 s  ClockTime = 0 s

Mean and max Characteristic Courant Numbers = 0.177995 0.37046
Courant Number max: 0.299014
deltaT = 0.000392618
Time = 0.00736184

diagonal:  Solving for rho, Initial residual = 0, Final residual = 0, No Iterations 0
rho max/min : 0.999943 / 0.124993
PIMPLE: Iteration 1
DILUPBiCG:  Solving for h, Initial residual = 0.00128271, Final residual = 2.62666e-19, No Iterations 1
max/min T: 2.80234/1.75281
DILUPBiCG:  Solving for p, Initial residual = 0.000360691, Final residual = 8.33936e-20, No Iterations 1
max(U): (0.952919 0 0)
max/min p: 1/0.1
diagonal:  Solving for rho, Initial residual = 0, Final residual = 0, No Iterations 0
rho max/min : 0.999943 / 0.124993
time step continuity errors : sum local = 1.57075e-16, global = 1.87823e-17, cumulative = 3.98469e-17
max/min FaceAcCourant: 0.371657/0.16621
max/min Maf: 0.946742/0
max/min kappa: 1/0
PIMPLE: Iteration 2
DILUPBiCG:  Solving for h, Initial residual = 0.00015161, Final residual = 1.69135e-20, No Iterations 1
max/min T: 2.79065/1.75493
DILUPBiCG:  Solving for p, Initial residual = 2.05838e-05, Final residual = 8.19161e-20, No Iterations 1
max(U): (0.953285 0 0)
max/min p: 1/0.1
diagonal:  Solving for rho, Initial residual = 0, Final residual = 0, No Iterations 0
rho max/min : 0.999943 / 0.124993
time step continuity errors : sum local = 1.43258e-16, global = 2.69861e-17, cumulative = 3.98469e-17
DILUPBiCG:  Solving for p, Initial residual = 2.87374e-06, Final residual = 2.79178e-21, No Iterations 1
max(U): (0.95336 0 0)
max/min p: 1/0.1
diagonal:  Solving for rho, Initial residual = 0, Final residual = 0, No Iterations 0
rho max/min : 0.999943 / 0.124993
time step continuity errors : sum local = 1.52202e-16, global = 2.16197e-17, cumulative = 6.14667e-17
max/min FaceAcCourant: 0.371657/0.16621
max/min Maf: 0.946766/0
max/min kappa: 1/0
ExecutionTime = 0.26 s  ClockTime = 0 s

Mean and max Characteristic Courant Numbers = 0.178707 0.371657
Courant Number max: 0.299355
deltaT = 0.000393255
Time = 0.00775509

diagonal:  Solving for rho, Initial residual = 0, Final residual = 0, No Iterations 0
rho max/min : 0.999943 / 0.124993
PIMPLE: Iteration 1
DILUPBiCG:  Solving for h, Initial residual = 0.00127969, Final residual = 4.98429e-19, No Iterations 1
max/min T: 2.81029/1.7492
DILUPBiCG:  Solving for p, Initial residual = 0.000361013, Final residual = 7.43169e-20, No Iterations 1
max(U): (0.95136 0 0)
max/min p: 1/0.1
diagonal:  Solving for rho, Initial residual = 0, Final residual = 0, No Iterations 0
rho max/min : 0.999943 / 0.124993
time step continuity errors : sum local = 1.51647e-16, global = 3.97852e-18, cumulative = 6.14667e-17
max/min FaceAcCourant: 0.372259/0.166479
max/min Maf: 0.948128/0
max/min kappa: 1/0
PIMPLE: Iteration 2
DILUPBiCG:  Solving for h, Initial residual = 0.000147063, Final residual = 1.12696e-20, No Iterations 1
max/min T: 2.80236/1.75112
DILUPBiCG:  Solving for p, Initial residual = 2.07586e-05, Final residual = 8.66616e-20, No Iterations 1
max(U): (0.951702 0 0)
max/min p: 1/0.1
diagonal:  Solving for rho, Initial residual = 0, Final residual = 0, No Iterations 0
rho max/min : 0.999943 / 0.124993
time step continuity errors : sum local = 1.41962e-16, global = -3.3617e-18, cumulative = 6.14667e-17
DILUPBiCG:  Solving for p, Initial residual = 1.53964e-06, Final residual = 1.1363e-21, No Iterations 1
max(U): (0.951773 0 0)
max/min p: 1/0.1
diagonal:  Solving for rho, Initial residual = 0, Final residual = 0, No Iterations 0
rho max/min : 0.999943 / 0.124993
time step continuity errors : sum local = 1.50413e-16, global = 2.80656e-18, cumulative = 6.42732e-17
max/min FaceAcCourant: 0.372259/0.166479
max/min Maf: 0.948226/0
max/min kappa: 1/0
ExecutionTime = 0.27 s  ClockTime = 0 s

Mean and max Characteristic Courant Numbers = 0.179135 0.372259
Courant Number max: 0.299235
deltaT = 0.000393894
Time = 0.00814899

diagonal:  Solving for rho, Initial residual = 0, Final residual = 0, No Iterations 0
rho max/min : 0.999943 / 0.124993
PIMPLE: Iteration 1
DILUPBiCG:  Solving for h, Initial residual = 0.00130001, Final residual = 3.17402e-19, No Iterations 1
max/min T: 2.81289/1.74729
DILUPBiCG:  Solving for p, Initial residual = 0.000361544, Final residual = 1.55417e-19, No Iterations 1
max(U): (0.949877 0 0)
max/min p: 1/0.1
diagonal:  Solving for rho, Initial residual = 0, Final residual = 0, No Iterations 0
rho max/min : 0.999943 / 0.124993
time step continuity errors : sum local = 1.36781e-16, global = -8.54303e-18, cumulative = 6.42732e-17
max/min FaceAcCourant: 0.372864/0.16675
max/min Maf: 0.949185/0
max/min kappa: 1/0
PIMPLE: Iteration 2
DILUPBiCG:  Solving for h, Initial residual = 0.000146317, Final residual = 2.90892e-20, No Iterations 1
max/min T: 2.80618/1.74906
DILUPBiCG:  Solving for p, Initial residual = 1.93992e-05, Final residual = 9.11092e-20, No Iterations 1
max(U): (0.950189 0 0)
max/min p: 1/0.1
diagonal:  Solving for rho, Initial residual = 0, Final residual = 0, No Iterations 0
rho max/min : 0.999943 / 0.124993
time step continuity errors : sum local = 1.48223e-16, global = 3.02244e-18, cumulative = 6.42732e-17
DILUPBiCG:  Solving for p, Initial residual = 1.53446e-06, Final residual = 4.05652e-22, No Iterations 1
max(U): (0.95026 0 0)
max/min p: 1/0.1
diagonal:  Solving for rho, Initial residual = 0, Final residual = 0, No Iterations 0
rho max/min : 0.999943 / 0.124993
time step continuity errors : sum local = 1.40852e-16, global = 2.49814e-18, cumulative = 6.67714e-17
max/min FaceAcCourant: 0.372864/0.16675
max/min Maf: 0.949238/0
max/min kappa: 1/0
ExecutionTime = 0.28 s  ClockTime = 0 s

Mean and max Characteristic Courant Numbers = 0.179564 0.372864
Courant Number max: 0.299135
deltaT = 0.000394537
Time = 0.00854353

diagonal:  Solving for rho, Initial residual = 0, Final residual = 0, No Iterations 0
rho max/min : 0.999943 / 0.124993
PIMPLE: Iteration 1
DILUPBiCG:  Solving for h, Initial residual = 0.00129964, Final residual = 2.67387e-19, No Iterations 1
max/min T: 2.81606/1.74676
DILUPBiCG:  Solving for p, Initial residual = 0.000362088, Final residual = 2.39028e-19, No Iterations 1
max(U): (0.948453 0 0)
max/min p: 1/0.1
diagonal:  Solving for rho, Initial residual = 0, Final residual = 0, No Iterations 0
rho max/min : 0.999943 / 0.124993
time step continuity errors : sum local = 1.50043e-16, global = -5.21217e-18, cumulative = 6.67714e-17
max/min FaceAcCourant: 0.373472/0.167022
max/min Maf: 0.949604/0
max/min kappa: 1/0
PIMPLE: Iteration 2
DILUPBiCG:  Solving for h, Initial residual = 0.000140174, Final residual = 1.27919e-20, No Iterations 1
max/min T: 2.81034/1.74841
DILUPBiCG:  Solving for p, Initial residual = 1.99616e-05, Final residual = 2.21629e-20, No Iterations 1
max(U): (0.948727 0 0)
max/min p: 1/0.1
diagonal:  Solving for rho, Initial residual = 0, Final residual = 0, No Iterations 0
rho max/min : 0.999943 / 0.124993
time step continuity errors : sum local = 1.50937e-16, global = 3.82432e-18, cumulative = 6.67714e-17
DILUPBiCG:  Solving for p, Initial residual = 3.12622e-06, Final residual = 1.26148e-21, No Iterations 1
max(U): (0.948797 0 0)
max/min p: 1/0.1
diagonal:  Solving for rho, Initial residual = 0, Final residual = 0, No Iterations 0
rho max/min : 0.999943 / 0.124993
time step continuity errors : sum local = 1.61701e-16, global = 4.28694e-18, cumulative = 7.10583e-17
max/min FaceAcCourant: 0.373472/0.167022
max/min Maf: 0.949651/0
max/min kappa: 1/0
ExecutionTime = 0.28 s  ClockTime = 0 s

Mean and max Characteristic Courant Numbers = 0.179995 0.373472
Courant Number max: 0.299057
deltaT = 0.000395182
Time = 0.00893871

diagonal:  Solving for rho, Initial residual = 0, Final residual = 0, No Iterations 0
rho max/min : 0.999943 / 0.124993
PIMPLE: Iteration 1
DILUPBiCG:  Solving for h, Initial residual = 0.0013132, Final residual = 2.60216e-19, No Iterations 1
max/min T: 2.82078/1.74732
DILUPBiCG:  Solving for p, Initial residual = 0.000362714, Final residual = 2.29615e-19, No Iterations 1
max(U): (0.947071 0 0)
max/min p: 1/0.1
diagonal:  Solving for rho, Initial residual = 0, Final residual = 0, No Iterations 0
rho max/min : 0.999943 / 0.124993
time step continuity errors : sum local = 1.43905e-16, global = 1.5729e-17, cumulative = 7.10583e-17
max/min FaceAcCourant: 0.374084/0.167295
max/min Maf: 0.949486/0
max/min kappa: 1/0
PIMPLE: Iteration 2
DILUPBiCG:  Solving for h, Initial residual = 0.000142014, Final residual = 2.24225e-20, No Iterations 1
max/min T: 2.81752/1.74887
DILUPBiCG:  Solving for p, Initial residual = 1.91912e-05, Final residual = 1.56841e-20, No Iterations 1
max(U): (0.947302 0 0)
max/min p: 1/0.1
diagonal:  Solving for rho, Initial residual = 0, Final residual = 0, No Iterations 0
rho max/min : 0.999943 / 0.124993
time step continuity errors : sum local = 1.38878e-16, global = 1.26141e-17, cumulative = 7.10583e-17
DILUPBiCG:  Solving for p, Initial residual = 1.35436e-06, Final residual = 2.75443e-22, No Iterations 1
max(U): (0.947373 0 0)
max/min p: 1/0.1
diagonal:  Solving for rho, Initial residual = 0, Final residual = 0, No Iterations 0
rho max/min : 0.999943 / 0.124993
time step continuity errors : sum local = 1.50752e-16, global = 2.01702e-17, cumulative = 9.12285e-17
max/min FaceAcCourant: 0.374084/0.167295
max/min Maf: 0.949554/0
max/min kappa: 1/0
ExecutionTime = 0.3 s  ClockTime = 0 s

Mean and max Characteristic Courant Numbers = 0.180428 0.374084
Courant Number max: 0.299004
deltaT = 0.000396482
Time = 0.00933519

diagonal:  Solving for rho, Initial residual = 0, Final residual = 0, No Iterations 0
rho max/min : 0.999943 / 0.124993
PIMPLE: Iteration 1
DILUPBiCG:  Solving for h, Initial residual = 0.00132328, Final residual = 1.34659e-19, No Iterations 1
max/min T: 2.82579/1.7487
DILUPBiCG:  Solving for p, Initial residual = 0.000364159, Final residual = 5.67901e-20, No Iterations 1
max(U): (0.945722 0 0)
max/min p: 1/0.1
diagonal:  Solving for rho, Initial residual = 0, Final residual = 0, No Iterations 0
rho max/min : 0.999943 / 0.124993
time step continuity errors : sum local = 1.4335e-16, global = -2.14655e-17, cumulative = 9.12285e-17
max/min FaceAcCourant: 0.375314/0.167846
max/min Maf: 0.948927/0
max/min kappa: 1/0
PIMPLE: Iteration 2
DILUPBiCG:  Solving for h, Initial residual = 0.000137603, Final residual = 3.32761e-20, No Iterations 1
max/min T: 2.81985/1.75016
DILUPBiCG:  Solving for p, Initial residual = 1.87416e-05, Final residual = 8.29239e-20, No Iterations 1
max(U): (0.945911 0 0)
max/min p: 1/0.1
diagonal:  Solving for rho, Initial residual = 0, Final residual = 0, No Iterations 0
rho max/min : 0.999943 / 0.124993
time step continuity errors : sum local = 1.44831e-16, global = -1.46188e-17, cumulative = 9.12285e-17
DILUPBiCG:  Solving for p, Initial residual = 2.94552e-06, Final residual = 1.35649e-21, No Iterations 1
max(U): (0.945983 0 0)
max/min p: 1/0.1
diagonal:  Solving for rho, Initial residual = 0, Final residual = 0, No Iterations 0
rho max/min : 0.999943 / 0.124993
time step continuity errors : sum local = 1.51307e-16, global = -2.03552e-17, cumulative = 7.08732e-17
max/min FaceAcCourant: 0.375314/0.167846
max/min Maf: 0.949048/0
max/min kappa: 1/0
ExecutionTime = 0.31 s  ClockTime = 0 s

Mean and max Characteristic Courant Numbers = 0.18116 0.375314
Courant Number max: 0.299482
deltaT = 0.000397137
Time = 0.00973233

diagonal:  Solving for rho, Initial residual = 0, Final residual = 0, No Iterations 0
rho max/min : 0.999943 / 0.124993
PIMPLE: Iteration 1
DILUPBiCG:  Solving for h, Initial residual = 0.00133092, Final residual = 1.50945e-19, No Iterations 1
max/min T: 2.83052/1.75064
DILUPBiCG:  Solving for p, Initial residual = 0.000365012, Final residual = 5.11948e-20, No Iterations 1
max(U): (0.944413 0 0)
max/min p: 1/0.1
diagonal:  Solving for rho, Initial residual = 0, Final residual = 0, No Iterations 0
rho max/min : 0.999943 / 0.124993
time step continuity errors : sum local = 1.53065e-16, global = 3.3617e-18, cumulative = 7.08732e-17
max/min FaceAcCourant: 0.375934/0.168123
max/min Maf: 0.94801/0
max/min kappa: 1/0
PIMPLE: Iteration 2
DILUPBiCG:  Solving for h, Initial residual = 0.000137076, Final residual = 2.88189e-20, No Iterations 1
max/min T: 2.82586/1.75081
DILUPBiCG:  Solving for p, Initial residual = 1.89581e-05, Final residual = 7.40189e-21, No Iterations 1
max(U): (0.944598 0 0)
max/min p: 1/0.1
diagonal:  Solving for rho, Initial residual = 0, Final residual = 0, No Iterations 0
rho max/min : 0.999943 / 0.124993
time step continuity errors : sum local = 1.47699e-16, global = 1.50814e-17, cumulative = 7.08732e-17
DILUPBiCG:  Solving for p, Initial residual = 1.44526e-06, Final residual = 7.58326e-22, No Iterations 1
max(U): (0.944666 0 0)
max/min p: 1/0.1
diagonal:  Solving for rho, Initial residual = 0, Final residual = 0, No Iterations 0
rho max/min : 0.999943 / 0.124993
time step continuity errors : sum local = 1.60467e-16, global = 5.45891e-18, cumulative = 7.63321e-17
max/min FaceAcCourant: 0.375934/0.168123
max/min Maf: 0.948061/0
max/min kappa: 1/0
ExecutionTime = 0.32 s  ClockTime = 0 s

Mean and max Characteristic Courant Numbers = 0.181599 0.375934
Courant Number max: 0.2995
deltaT = 0.000397794
Time = 0.0101301

diagonal:  Solving for rho, Initial residual = 0, Final residual = 0, No Iterations 0
rho max/min : 0.999943 / 0.124993
PIMPLE: Iteration 1
DILUPBiCG:  Solving for h, Initial residual = 0.00134586, Final residual = 1.15614e-19, No Iterations 1
max/min T: 2.83494/1.75087
DILUPBiCG:  Solving for p, Initial residual = 0.000365169, Final residual = 4.22416e-20, No Iterations 1
max(U): (0.943268 0 0)
max/min p: 1/0.1
diagonal:  Solving for rho, Initial residual = 0, Final residual = 0, No Iterations 0
rho max/min : 0.999943 / 0.124993
time step continuity errors : sum local = 1.62657e-16, global = 4.26226e-17, cumulative = 7.63321e-17
max/min FaceAcCourant: 0.376556/0.168401
max/min Maf: 0.947394/0
max/min kappa: 1/0
PIMPLE: Iteration 2
DILUPBiCG:  Solving for h, Initial residual = 0.000134229, Final residual = 2.2984e-20, No Iterations 1
max/min T: 2.82917/1.75076
DILUPBiCG:  Solving for p, Initial residual = 1.79112e-05, Final residual = 2.84239e-20, No Iterations 1
max(U): (0.943418 0 0)
max/min p: 1/0.1
diagonal:  Solving for rho, Initial residual = 0, Final residual = 0, No Iterations 0
rho max/min : 0.999943 / 0.124993
time step continuity errors : sum local = 1.59141e-16, global = 1.98618e-17, cumulative = 7.63321e-17
DILUPBiCG:  Solving for p, Initial residual = 2.28567e-06, Final residual = 3.0992e-21, No Iterations 1
max(U): (0.943486 0 0)
max/min p: 1/0.1
diagonal:  Solving for rho, Initial residual = 0, Final residual = 0, No Iterations 0
rho max/min : 0.999943 / 0.124993
time step continuity errors : sum local = 1.70244e-16, global = 3.39254e-17, cumulative = 1.10258e-16
max/min FaceAcCourant: 0.376556/0.168401
max/min Maf: 0.94762/0
max/min kappa: 1/0
ExecutionTime = 0.32 s  ClockTime = 0 s

Mean and max Characteristic Courant Numbers = 0.18204 0.376556
Courant Number max: 0.299544
deltaT = 0.000397794
Time = 0.0105279

diagonal:  Solving for rho, Initial residual = 0, Final residual = 0, No Iterations 0
rho max/min : 0.999943 / 0.124993
PIMPLE: Iteration 1
DILUPBiCG:  Solving for h, Initial residual = 0.00134793, Final residual = 2.76128e-19, No Iterations 1
max/min T: 2.83929/1.75076
DILUPBiCG:  Solving for p, Initial residual = 0.000364626, Final residual = 1.55207e-19, No Iterations 1
max(U): (0.942319 0 0)
max/min p: 1/0.1
diagonal:  Solving for rho, Initial residual = 0, Final residual = 0, No Iterations 0
rho max/min : 0.999943 / 0.124993
time step continuity errors : sum local = 1.49087e-16, global = 2.73254e-17, cumulative = 1.10258e-16
max/min FaceAcCourant: 0.376556/0.168401
max/min Maf: 0.946975/0
max/min kappa: 1/0
PIMPLE: Iteration 2
DILUPBiCG:  Solving for h, Initial residual = 0.000130312, Final residual = 2.82298e-20, No Iterations 1
max/min T: 2.83499/1.75071
DILUPBiCG:  Solving for p, Initial residual = 1.83262e-05, Final residual = 2.82765e-20, No Iterations 1
max(U): (0.942419 0 0)
max/min p: 1/0.1
diagonal:  Solving for rho, Initial residual = 0, Final residual = 0, No Iterations 0
rho max/min : 0.999943 / 0.124993
time step continuity errors : sum local = 1.47267e-16, global = 2.51356e-17, cumulative = 1.10258e-16
DILUPBiCG:  Solving for p, Initial residual = 1.2144e-06, Final residual = 2.75203e-22, No Iterations 1
max(U): (0.942489 0 0)
max/min p: 1/0.1
diagonal:  Solving for rho, Initial residual = 0, Final residual = 0, No Iterations 0
rho max/min : 0.999943 / 0.124993
time step continuity errors : sum local = 1.44923e-16, global = 2.1373e-17, cumulative = 1.31631e-16
max/min FaceAcCourant: 0.376556/0.168401
max/min Maf: 0.947163/0
max/min kappa: 1/0
ExecutionTime = 0.33 s  ClockTime = 0 s

Mean and max Characteristic Courant Numbers = 0.182179 0.376556
Courant Number max: 0.299135
deltaT = 0.000398456
Time = 0.0109264

diagonal:  Solving for rho, Initial residual = 0, Final residual = 0, No Iterations 0
rho max/min : 0.999943 / 0.124993
PIMPLE: Iteration 1
DILUPBiCG:  Solving for h, Initial residual = 0.00136252, Final residual = 2.94071e-19, No Iterations 1
max/min T: 2.84107/1.75085
DILUPBiCG:  Solving for p, Initial residual = 0.000365196, Final residual = 2.67509e-19, No Iterations 1
max(U): (0.94155 0 0)
max/min p: 1/0.1
diagonal:  Solving for rho, Initial residual = 0, Final residual = 0, No Iterations 0
rho max/min : 0.999943 / 0.124993
time step continuity errors : sum local = 1.47421e-16, global = -1.48038e-17, cumulative = 1.31631e-16
max/min FaceAcCourant: 0.377183/0.168681
max/min Maf: 0.946542/0
max/min kappa: 1/0
PIMPLE: Iteration 2
DILUPBiCG:  Solving for h, Initial residual = 0.000129065, Final residual = 2.75519e-20, No Iterations 1
max/min T: 2.83738/1.75091
DILUPBiCG:  Solving for p, Initial residual = 1.7664e-05, Final residual = 1.14958e-20, No Iterations 1
max(U): (0.941601 0 0)
max/min p: 1/0.1
diagonal:  Solving for rho, Initial residual = 0, Final residual = 0, No Iterations 0
rho max/min : 0.999943 / 0.124993
time step continuity errors : sum local = 1.46558e-16, global = -1.0486e-18, cumulative = 1.31631e-16
DILUPBiCG:  Solving for p, Initial residual = 1.08381e-06, Final residual = 8.65201e-22, No Iterations 1
max(U): (0.941672 0 0)
max/min p: 1/0.1
diagonal:  Solving for rho, Initial residual = 0, Final residual = 0, No Iterations 0
rho max/min : 0.999943 / 0.124993
time step continuity errors : sum local = 1.49148e-16, global = -4.13273e-18, cumulative = 1.27498e-16
max/min FaceAcCourant: 0.377183/0.168681
max/min Maf: 0.94668/0
max/min kappa: 1/0
ExecutionTime = 0.34 s  ClockTime = 0 s

Mean and max Characteristic Courant Numbers = 0.182622 0.377183
Courant Number max: 0.299271
deltaT = 0.000399121
Time = 0.0113255

diagonal:  Solving for rho, Initial residual = 0, Final residual = 0, No Iterations 0
rho max/min : 0.999943 / 0.124993
PIMPLE: Iteration 1
DILUPBiCG:  Solving for h, Initial residual = 0.00136732, Final residual = 1.23556e-19, No Iterations 1
max/min T: 2.8423/1.75142
DILUPBiCG:  Solving for p, Initial residual = 0.000366197, Final residual = 8.19178e-20, No Iterations 1
max(U): (0.940924 0 0)
max/min p: 1/0.1
diagonal:  Solving for rho, Initial residual = 0, Final residual = 0, No Iterations 0
rho max/min : 0.999943 / 0.124993
time step continuity errors : sum local = 1.52572e-16, global = 3.13656e-17, cumulative = 1.27498e-16
max/min FaceAcCourant: 0.377812/0.168963
max/min Maf: 0.946059/0
max/min kappa: 1/0
PIMPLE: Iteration 2
DILUPBiCG:  Solving for h, Initial residual = 0.000125749, Final residual = 3.07547e-20, No Iterations 1
max/min T: 2.83883/1.75159
DILUPBiCG:  Solving for p, Initial residual = 1.81855e-05, Final residual = 2.33207e-20, No Iterations 1
max(U): (0.940938 0 0)
max/min p: 1/0.1
diagonal:  Solving for rho, Initial residual = 0, Final residual = 0, No Iterations 0
rho max/min : 0.999943 / 0.124993
time step continuity errors : sum local = 1.5655e-16, global = 2.05403e-17, cumulative = 1.27498e-16
DILUPBiCG:  Solving for p, Initial residual = 2.43607e-06, Final residual = 5.94583e-22, No Iterations 1
max(U): (0.941007 0 0)
max/min p: 1/0.1
diagonal:  Solving for rho, Initial residual = 0, Final residual = 0, No Iterations 0
rho max/min : 0.999943 / 0.124993
time step continuity errors : sum local = 1.57445e-16, global = 3.54366e-17, cumulative = 1.62934e-16
max/min FaceAcCourant: 0.377812/0.168963
max/min Maf: 0.946153/0
max/min kappa: 1/0
ExecutionTime = 0.35 s  ClockTime = 0 s

Mean and max Characteristic Courant Numbers = 0.183067 0.377812
Courant Number max: 0.299457
deltaT = 0.00039979
Time = 0.0117253

diagonal:  Solving for rho, Initial residual = 0, Final residual = 0, No Iterations 0
rho max/min : 0.999943 / 0.124993
PIMPLE: Iteration 1
DILUPBiCG:  Solving for h, Initial residual = 0.00137561, Final residual = 2.84459e-19, No Iterations 1
max/min T: 2.84437/1.75262
DILUPBiCG:  Solving for p, Initial residual = 0.000367158, Final residual = 2.3096e-19, No Iterations 1
max(U): (0.940398 0 0)
max/min p: 1/0.1
diagonal:  Solving for rho, Initial residual = 0, Final residual = 0, No Iterations 0
rho max/min : 0.999943 / 0.124993
time step continuity errors : sum local = 1.39187e-16, global = 1.42178e-17, cumulative = 1.62934e-16
max/min FaceAcCourant: 0.378445/0.169246
max/min Maf: 0.945494/0
max/min kappa: 1/0
PIMPLE: Iteration 2
DILUPBiCG:  Solving for h, Initial residual = 0.000125768, Final residual = 3.33588e-20, No Iterations 1
max/min T: 2.84154/1.75284
DILUPBiCG:  Solving for p, Initial residual = 1.76637e-05, Final residual = 8.52742e-21, No Iterations 1
max(U): (0.940391 0 0)
max/min p: 1/0.1
diagonal:  Solving for rho, Initial residual = 0, Final residual = 0, No Iterations 0
rho max/min : 0.999943 / 0.124993
time step continuity errors : sum local = 1.51091e-16, global = 1.05786e-17, cumulative = 1.62934e-16
DILUPBiCG:  Solving for p, Initial residual = 1.23457e-06, Final residual = 5.41155e-22, No Iterations 1
max(U): (0.940456 0 0)
max/min p: 1/0.1
diagonal:  Solving for rho, Initial residual = 0, Final residual = 0, No Iterations 0
rho max/min : 0.999943 / 0.124993
time step continuity errors : sum local = 1.55687e-16, global = 6.04489e-18, cumulative = 1.68979e-16
max/min FaceAcCourant: 0.378445/0.169246
max/min Maf: 0.945555/0
max/min kappa: 1/0
ExecutionTime = 0.36 s  ClockTime = 0 s

Mean and max Characteristic Courant Numbers = 0.183516 0.378445
Courant Number max: 0.299693
deltaT = 0.00039979
Time = 0.0121251

diagonal:  Solving for rho, Initial residual = 0, Final residual = 0, No Iterations 0
rho max/min : 0.999943 / 0.124993
PIMPLE: Iteration 1
DILUPBiCG:  Solving for h, Initial residual = 0.00138028, Final residual = 5.92861e-19, No Iterations 1
max/min T: 2.84658/1.7544
DILUPBiCG:  Solving for p, Initial residual = 0.000367485, Final residual = 2.77624e-19, No Iterations 1
max(U): (0.939936 0 0)
max/min p: 1/0.1
diagonal:  Solving for rho, Initial residual = 0, Final residual = 0, No Iterations 0
rho max/min : 0.999943 / 0.124993
time step continuity errors : sum local = 1.55841e-16, global = 2.0016e-17, cumulative = 1.68979e-16
max/min FaceAcCourant: 0.378445/0.169246
max/min Maf: 0.944835/0
max/min kappa: 1/0
PIMPLE: Iteration 2
DILUPBiCG:  Solving for h, Initial residual = 0.000121025, Final residual = 2.12094e-20, No Iterations 1
max/min T: 2.84344/1.75463
DILUPBiCG:  Solving for p, Initial residual = 1.7328e-05, Final residual = 1.59109e-20, No Iterations 1
max(U): (0.939919 0 0)
max/min p: 1/0.1
diagonal:  Solving for rho, Initial residual = 0, Final residual = 0, No Iterations 0
rho max/min : 0.999943 / 0.124993
time step continuity errors : sum local = 1.53034e-16, global = 1.68393e-17, cumulative = 1.68979e-16
DILUPBiCG:  Solving for p, Initial residual = 2.083e-06, Final residual = 3.91081e-22, No Iterations 1
max(U): (0.939979 0 0)
max/min p: 1/0.1
diagonal:  Solving for rho, Initial residual = 0, Final residual = 0, No Iterations 0
rho max/min : 0.999943 / 0.124993
time step continuity errors : sum local = 1.53096e-16, global = 7.09349e-18, cumulative = 1.76073e-16
max/min FaceAcCourant: 0.378445/0.169246
max/min Maf: 0.944876/0
max/min kappa: 1/0
ExecutionTime = 0.37 s  ClockTime = 0 s

Mean and max Characteristic Courant Numbers = 0.183658 0.378445
Courant Number max: 0.299472
deltaT = 0.000400463
Time = 0.0125255

diagonal:  Solving for rho, Initial residual = 0, Final residual = 0, No Iterations 0
rho max/min : 0.999943 / 0.124993
PIMPLE: Iteration 1
DILUPBiCG:  Solving for h, Initial residual = 0.00138513, Final residual = 1.81399e-19, No Iterations 1
max/min T: 2.84864/1.75663
DILUPBiCG:  Solving for p, Initial residual = 0.000368383, Final residual = 8.06056e-20, No Iterations 1
max(U): (0.939506 0 0)
max/min p: 1/0.1
diagonal:  Solving for rho, Initial residual = 0, Final residual = 0, No Iterations 0
rho max/min : 0.999943 / 0.124993
time step continuity errors : sum local = 1.66296e-16, global = -9.86921e-18, cumulative = 1.76073e-16
max/min FaceAcCourant: 0.379082/0.169531
max/min Maf: 0.944078/0
max/min kappa: 1/0
PIMPLE: Iteration 2
DILUPBiCG:  Solving for h, Initial residual = 0.000122193, Final residual = 1.67127e-20, No Iterations 1
max/min T: 2.84617/1.75683
DILUPBiCG:  Solving for p, Initial residual = 1.75609e-05, Final residual = 3.94472e-20, No Iterations 1
max(U): (0.939489 0 0)
max/min p: 1/0.1
diagonal:  Solving for rho, Initial residual = 0, Final residual = 0, No Iterations 0
rho max/min : 0.999943 / 0.124993
time step continuity errors : sum local = 1.61115e-16, global = -2.64001e-17, cumulative = 1.76073e-16
DILUPBiCG:  Solving for p, Initial residual = 1.12562e-06, Final residual = 7.60994e-23, No Iterations 1
max(U): (0.939543 0 0)
max/min p: 1/0.1
diagonal:  Solving for rho, Initial residual = 0, Final residual = 0, No Iterations 0
rho max/min : 0.999943 / 0.124993
time step continuity errors : sum local = 1.46527e-16, global = -1.58833e-17, cumulative = 1.6019e-16
max/min FaceAcCourant: 0.379082/0.169531
max/min Maf: 0.944109/0
max/min kappa: 1/0
ExecutionTime = 0.38 s  ClockTime = 0 s

Mean and max Characteristic Courant Numbers = 0.18411 0.379082
Courant Number max: 0.299795
deltaT = 0.000400463
Time = 0.012926

diagonal:  Solving for rho, Initial residual = 0, Final residual = 0, No Iterations 0
rho max/min : 0.999943 / 0.124993
PIMPLE: Iteration 1
DILUPBiCG:  Solving for h, Initial residual = 0.00139083, Final residual = 6.79033e-19, No Iterations 1
max/min T: 2.85059/1.75912
DILUPBiCG:  Solving for p, Initial residual = 0.000368691, Final residual = 4.96247e-20, No Iterations 1
max(U): (0.939094 0 0)
max/min p: 1/0.1
diagonal:  Solving for rho, Initial residual = 0, Final residual = 0, No Iterations 0
rho max/min : 0.999943 / 0.124993
time step continuity errors : sum local = 1.46743e-16, global = -1.11029e-18, cumulative = 1.6019e-16
max/min FaceAcCourant: 0.379082/0.169531
max/min Maf: 0.943257/0
max/min kappa: 1/0
PIMPLE: Iteration 2
DILUPBiCG:  Solving for h, Initial residual = 0.000119359, Final residual = 2.24649e-20, No Iterations 1
max/min T: 2.84757/1.75928
DILUPBiCG:  Solving for p, Initial residual = 1.65891e-05, Final residual = 3.87364e-21, No Iterations 1
max(U): (0.939079 0 0)
max/min p: 1/0.1
diagonal:  Solving for rho, Initial residual = 0, Final residual = 0, No Iterations 0
rho max/min : 0.999943 / 0.124993
time step continuity errors : sum local = 1.49179e-16, global = 1.44954e-18, cumulative = 1.6019e-16
DILUPBiCG:  Solving for p, Initial residual = 1.41768e-06, Final residual = 3.61516e-22, No Iterations 1
max(U): (0.939128 0 0)
max/min p: 1/0.1
diagonal:  Solving for rho, Initial residual = 0, Final residual = 0, No Iterations 0
rho max/min : 0.999943 / 0.124993
time step continuity errors : sum local = 1.50074e-16, global = -5.11965e-18, cumulative = 1.5507e-16
max/min FaceAcCourant: 0.379082/0.169531
max/min Maf: 0.943284/0
max/min kappa: 1/0
ExecutionTime = 0.39 s  ClockTime = 0 s

Mean and max Characteristic Courant Numbers = 0.184252 0.379082
Courant Number max: 0.300108
deltaT = 0.000399788
Time = 0.0133258

diagonal:  Solving for rho, Initial residual = 0, Final residual = 0, No Iterations 0
rho max/min : 0.999943 / 0.124993
PIMPLE: Iteration 1
DILUPBiCG:  Solving for h, Initial residual = 0.00138745, Final residual = 5.59587e-19, No Iterations 1
max/min T: 2.85256/1.76171
DILUPBiCG:  Solving for p, Initial residual = 0.000367865, Final residual = 5.32224e-20, No Iterations 1
max(U): (0.93869 0 0)
max/min p: 1/0.1
diagonal:  Solving for rho, Initial residual = 0, Final residual = 0, No Iterations 0
rho max/min : 0.999943 / 0.124993
time step continuity errors : sum local = 1.52171e-16, global = 5.3047e-18, cumulative = 1.5507e-16
max/min FaceAcCourant: 0.378443/0.169245
max/min Maf: 0.942399/0
max/min kappa: 1/0
PIMPLE: Iteration 2
DILUPBiCG:  Solving for h, Initial residual = 0.000117571, Final residual = 2.31843e-20, No Iterations 1
max/min T: 2.85043/1.76182
DILUPBiCG:  Solving for p, Initial residual = 1.7404e-05, Final residual = 1.05772e-20, No Iterations 1
max(U): (0.938679 0 0)
max/min p: 1/0.1
diagonal:  Solving for rho, Initial residual = 0, Final residual = 0, No Iterations 0
rho max/min : 0.999943 / 0.124993
time step continuity errors : sum local = 1.53004e-16, global = 9.90005e-18, cumulative = 1.5507e-16
DILUPBiCG:  Solving for p, Initial residual = 1.06669e-06, Final residual = 1.13644e-21, No Iterations 1
max(U): (0.938724 0 0)
max/min p: 1/0.1
diagonal:  Solving for rho, Initial residual = 0, Final residual = 0, No Iterations 0
rho max/min : 0.999943 / 0.124993
time step continuity errors : sum local = 1.40945e-16, global = 7.09349e-18, cumulative = 1.62163e-16
max/min FaceAcCourant: 0.378443/0.169245
max/min Maf: 0.942426/0
max/min kappa: 1/0
ExecutionTime = 0.4 s  ClockTime = 0 s

Mean and max Characteristic Courant Numbers = 0.184083 0.378443
Courant Number max: 0.299653
deltaT = 0.000399788
Time = 0.0137256

diagonal:  Solving for rho, Initial residual = 0, Final residual = 0, No Iterations 0
rho max/min : 0.999943 / 0.124993
PIMPLE: Iteration 1
DILUPBiCG:  Solving for h, Initial residual = 0.00139159, Final residual = 6.16089e-19, No Iterations 1
max/min T: 2.85382/1.76427
DILUPBiCG:  Solving for p, Initial residual = 0.000367607, Final residual = 2.76623e-20, No Iterations 1
max(U): (0.938292 0 0)
max/min p: 1/0.1
diagonal:  Solving for rho, Initial residual = 0, Final residual = 0, No Iterations 0
rho max/min : 0.999943 / 0.124993
time step continuity errors : sum local = 1.41716e-16, global = 6.32246e-18, cumulative = 1.62163e-16
max/min FaceAcCourant: 0.378443/0.169245
max/min Maf: 0.941528/0
max/min kappa: 1/0
PIMPLE: Iteration 2
DILUPBiCG:  Solving for h, Initial residual = 0.000117587, Final residual = 3.18778e-20, No Iterations 1
max/min T: 2.85165/1.76412
DILUPBiCG:  Solving for p, Initial residual = 1.67269e-05, Final residual = 3.12351e-21, No Iterations 1
max(U): (0.938284 0 0)
max/min p: 1/0.1
diagonal:  Solving for rho, Initial residual = 0, Final residual = 0, No Iterations 0
rho max/min : 0.999943 / 0.124993
time step continuity errors : sum local = 1.4739e-16, global = 5.24302e-19, cumulative = 1.62163e-16
DILUPBiCG:  Solving for p, Initial residual = 9.47205e-07, Final residual = 2.47524e-22, No Iterations 1
max(U): (0.938325 0 0)
max/min p: 1/0.1
diagonal:  Solving for rho, Initial residual = 0, Final residual = 0, No Iterations 0
rho max/min : 0.999943 / 0.124993
time step continuity errors : sum local = 1.51955e-16, global = -1.12571e-17, cumulative = 1.50906e-16
max/min FaceAcCourant: 0.378443/0.169245
max/min Maf: 0.941496/0
max/min kappa: 1/0
ExecutionTime = 0.41 s  ClockTime = 0 s

Mean and max Characteristic Courant Numbers = 0.184223 0.378443
Courant Number max: 0.299343
deltaT = 0.000400465
Time = 0.014126

diagonal:  Solving for rho, Initial residual = 0, Final residual = 0, No Iterations 0
rho max/min : 0.999943 / 0.124993
PIMPLE: Iteration 1
DILUPBiCG:  Solving for h, Initial residual = 0.00139264, Final residual = 3.02851e-19, No Iterations 1
max/min T: 2.85453/1.76622
DILUPBiCG:  Solving for p, Initial residual = 0.000368991, Final residual = 5.46913e-20, No Iterations 1
max(U): (0.937891 0 0)
max/min p: 1/0.1
diagonal:  Solving for rho, Initial residual = 0, Final residual = 0, No Iterations 0
rho max/min : 0.999943 / 0.124993
time step continuity errors : sum local = 1.53404e-16, global = -1.21515e-17, cumulative = 1.50906e-16
max/min FaceAcCourant: 0.379084/0.169532
max/min Maf: 0.940498/0
max/min kappa: 1/0
PIMPLE: Iteration 2
DILUPBiCG:  Solving for h, Initial residual = 0.000115129, Final residual = 4.34392e-20, No Iterations 1
max/min T: 2.8528/1.7658
DILUPBiCG:  Solving for p, Initial residual = 1.74016e-05, Final residual = 3.75024e-20, No Iterations 1
max(U): (0.937877 0 0)
max/min p: 1/0.1
diagonal:  Solving for rho, Initial residual = 0, Final residual = 0, No Iterations 0
rho max/min : 0.999943 / 0.124993
time step continuity errors : sum local = 1.47545e-16, global = 6.10657e-18, cumulative = 1.50906e-16
DILUPBiCG:  Solving for p, Initial residual = 1.61211e-06, Final residual = 3.44875e-22, No Iterations 1
max(U): (0.937915 0 0)
max/min p: 1/0.1
diagonal:  Solving for rho, Initial residual = 0, Final residual = 0, No Iterations 0
rho max/min : 0.999943 / 0.124993
time step continuity errors : sum local = 1.64384e-16, global = 3.02244e-18, cumulative = 1.53929e-16
max/min FaceAcCourant: 0.379084/0.169532
max/min Maf: 0.940359/0
max/min kappa: 1/0
ExecutionTime = 0.42 s  ClockTime = 0 s

Mean and max Characteristic Courant Numbers = 0.184676 0.379084
Courant Number max: 0.299568
deltaT = 0.000400465
Time = 0.0145265

diagonal:  Solving for rho, Initial residual = 0, Final residual = 0, No Iterations 0
rho max/min : 0.999943 / 0.124993
PIMPLE: Iteration 1
DILUPBiCG:  Solving for h, Initial residual = 0.0013941, Final residual = 2.59788e-19, No Iterations 1
max/min T: 2.85567/1.76766
DILUPBiCG:  Solving for p, Initial residual = 0.000369599, Final residual = 1.55863e-19, No Iterations 1
max(U): (0.937459 0 0)
max/min p: 1/0.1
diagonal:  Solving for rho, Initial residual = 0, Final residual = 0, No Iterations 0
rho max/min : 0.999943 / 0.124993
time step continuity errors : sum local = 1.46465e-16, global = -1.27991e-17, cumulative = 1.53929e-16
max/min FaceAcCourant: 0.379084/0.169532
max/min Maf: 0.939287/0
max/min kappa: 1/0
PIMPLE: Iteration 2
DILUPBiCG:  Solving for h, Initial residual = 0.000116129, Final residual = 9.41107e-21, No Iterations 1
max/min T: 2.85428/1.76717
DILUPBiCG:  Solving for p, Initial residual = 1.68955e-05, Final residual = 5.4049e-20, No Iterations 1
max(U): (0.93745 0 0)
max/min p: 1/0.1
diagonal:  Solving for rho, Initial residual = 0, Final residual = 0, No Iterations 0
rho max/min : 0.999943 / 0.124993
time step continuity errors : sum local = 1.56211e-16, global = -1.28608e-17, cumulative = 1.53929e-16
DILUPBiCG:  Solving for p, Initial residual = 1.0096e-06, Final residual = 3.66046e-22, No Iterations 1
max(U): (0.937485 0 0)
max/min p: 1/0.1
diagonal:  Solving for rho, Initial residual = 0, Final residual = 0, No Iterations 0
rho max/min : 0.999943 / 0.124993
time step continuity errors : sum local = 1.52541e-16, global = -5.92152e-18, cumulative = 1.48007e-16
max/min FaceAcCourant: 0.379084/0.169532
max/min Maf: 0.939176/0
max/min kappa: 1/0
ExecutionTime = 0.42 s  ClockTime = 0 s

Mean and max Characteristic Courant Numbers = 0.184817 0.379084
Courant Number max: 0.299383
deltaT = 0.000401147
Time = 0.0149277

diagonal:  Solving for rho, Initial residual = 0, Final residual = 0, No Iterations 0
rho max/min : 0.999943 / 0.124993
PIMPLE: Iteration 1
DILUPBiCG:  Solving for h, Initial residual = 0.00139824, Final residual = 1.56972e-19, No Iterations 1
max/min T: 2.85687/1.76859
DILUPBiCG:  Solving for p, Initial residual = 0.000370842, Final residual = 3.81372e-19, No Iterations 1
max(U): (0.937007 0 0)
max/min p: 1/0.1
diagonal:  Solving for rho, Initial residual = 0, Final residual = 0, No Iterations 0
rho max/min : 0.999943 / 0.124993
time step continuity errors : sum local = 1.52109e-16, global = -1.86898e-17, cumulative = 1.48007e-16
max/min FaceAcCourant: 0.37973/0.169821
max/min Maf: 0.938099/0
max/min kappa: 1/0
PIMPLE: Iteration 2
DILUPBiCG:  Solving for h, Initial residual = 0.000113826, Final residual = 2.66184e-20, No Iterations 1
max/min T: 2.85516/1.76826
DILUPBiCG:  Solving for p, Initial residual = 1.71192e-05, Final residual = 2.337e-20, No Iterations 1
max(U): (0.937 0 0)
max/min p: 1/0.1
diagonal:  Solving for rho, Initial residual = 0, Final residual = 0, No Iterations 0
rho max/min : 0.999943 / 0.124993
time step continuity errors : sum local = 1.44707e-16, global = -1.09178e-17, cumulative = 1.48007e-16
DILUPBiCG:  Solving for p, Initial residual = 1.44583e-06, Final residual = 2.90416e-22, No Iterations 1
max(U): (0.937034 0 0)
max/min p: 1/0.1
diagonal:  Solving for rho, Initial residual = 0, Final residual = 0, No Iterations 0
rho max/min : 0.999943 / 0.124993
time step continuity errors : sum local = 1.6682e-16, global = -1.26758e-17, cumulative = 1.35332e-16
max/min FaceAcCourant: 0.37973/0.169821
max/min Maf: 0.938024/0
max/min kappa: 1/0
ExecutionTime = 0.43 s  ClockTime = 0 s

Mean and max Characteristic Courant Numbers = 0.185273 0.37973
Courant Number max: 0.29988
deltaT = 0.000401147
Time = 0.0153288

diagonal:  Solving for rho, Initial residual = 0, Final residual = 0, No Iterations 0
rho max/min : 0.999943 / 0.124993
PIMPLE: Iteration 1
DILUPBiCG:  Solving for h, Initial residual = 0.00139608, Final residual = 1.47267e-19, No Iterations 1
max/min T: 2.85792/1.76885
DILUPBiCG:  Solving for p, Initial residual = 0.000371095, Final residual = 8.07945e-20, No Iterations 1
max(U): (0.936562 0 0)
max/min p: 1/0.1
diagonal:  Solving for rho, Initial residual = 0, Final residual = 0, No Iterations 0
rho max/min : 0.999943 / 0.124993
time step continuity errors : sum local = 1.58586e-16, global = -1.70861e-17, cumulative = 1.35332e-16
max/min FaceAcCourant: 0.37973/0.169821
max/min Maf: 0.938053/0
max/min kappa: 1/0
PIMPLE: Iteration 2
DILUPBiCG:  Solving for h, Initial residual = 0.000114059, Final residual = 2.19494e-20, No Iterations 1
max/min T: 2.85663/1.76903
DILUPBiCG:  Solving for p, Initial residual = 1.69769e-05, Final residual = 1.68524e-21, No Iterations 1
max(U): (0.936565 0 0)
max/min p: 1/0.1
diagonal:  Solving for rho, Initial residual = 0, Final residual = 0, No Iterations 0
rho max/min : 0.999943 / 0.124993
time step continuity errors : sum local = 1.5544e-16, global = -1.23982e-17, cumulative = 1.35332e-16
DILUPBiCG:  Solving for p, Initial residual = 9.61994e-07, Final residual = 1.53208e-21, No Iterations 1
max(U): (0.936596 0 0)
max/min p: 1/0.1
diagonal:  Solving for rho, Initial residual = 0, Final residual = 0, No Iterations 0
rho max/min : 0.999943 / 0.124993
time step continuity errors : sum local = 1.60745e-16, global = -1.56674e-17, cumulative = 1.19664e-16
max/min FaceAcCourant: 0.37973/0.169821
max/min Maf: 0.937732/0
[...]
max(U): (0.926263 0 0)
max/min p: 1/0.1
diagonal:  Solving for rho, Initial residual = 0, Final residual = 0, No Iterations 0
rho max/min : 0.999943 / 0.124993
time step continuity errors : sum local = 1.63243e-16, global = -9.90005e-18, cumulative = 2.44047e-16
max/min FaceAcCourant: 0.382561/0.171087
max/min Maf: 0.927972/0
max/min kappa: 1/0
PIMPLE: Iteration 2
DILUPBiCG:  Solving for h, Initial residual = 6.22971e-05, Final residual = 3.02002e-20, No Iterations 1
max/min T: 2.85321/1.77898
DILUPBiCG:  Solving for p, Initial residual = 1.91814e-05, Final residual = 8.2811e-20, No Iterations 1
max(U): (0.926263 0 0)
max/min p: 1/0.1
diagonal:  Solving for rho, Initial residual = 0, Final residual = 0, No Iterations 0
rho max/min : 0.999943 / 0.124993
time step continuity errors : sum local = 1.49611e-16, global = 2.3131e-18, cumulative = 2.44047e-16
DILUPBiCG:  Solving for p, Initial residual = 1.03588e-06, Final residual = 1.29648e-22, No Iterations 1
max(U): (0.926263 0 0)
max/min p: 1/0.1
diagonal:  Solving for rho, Initial residual = 0, Final residual = 0, No Iterations 0
rho max/min : 0.999943 / 0.124993
time step continuity errors : sum local = 1.55317e-16, global = -1.11029e-18, cumulative = 2.42937e-16
max/min FaceAcCourant: 0.382561/0.171087
max/min Maf: 0.927973/0
max/min kappa: 1/0
ExecutionTime = 5.72 s  ClockTime = 6 s

Mean and max Characteristic Courant Numbers = 0.268609 0.382561
Courant Number max: 0.29947
deltaT = 0.000404138
Time = 0.246363

diagonal:  Solving for rho, Initial residual = 0, Final residual = 0, No Iterations 0
rho max/min : 0.999943 / 0.124993
PIMPLE: Iteration 1
DILUPBiCG:  Solving for h, Initial residual = 0.00118602, Final residual = 2.80703e-19, No Iterations 1
max/min T: 2.85321/1.77898
DILUPBiCG:  Solving for p, Initial residual = 0.000606426, Final residual = 1.04977e-18, No Iterations 1
max(U): (0.926259 0 0)
max/min p: 1/0.1
diagonal:  Solving for rho, Initial residual = 0, Final residual = 0, No Iterations 0
rho max/min : 0.999943 / 0.124993
time step continuity errors : sum local = 1.47606e-16, global = 6.29162e-18, cumulative = 2.42937e-16
max/min FaceAcCourant: 0.382561/0.171087
max/min Maf: 0.92797/0
max/min kappa: 1/0
PIMPLE: Iteration 2
DILUPBiCG:  Solving for h, Initial residual = 6.21237e-05, Final residual = 1.24101e-20, No Iterations 1
max/min T: 2.85321/1.77898
DILUPBiCG:  Solving for p, Initial residual = 1.79774e-05, Final residual = 3.99363e-20, No Iterations 1
max(U): (0.92626 0 0)
max/min p: 1/0.1
diagonal:  Solving for rho, Initial residual = 0, Final residual = 0, No Iterations 0
rho max/min : 0.999943 / 0.124993
time step continuity errors : sum local = 1.44306e-16, global = -6.44583e-18, cumulative = 2.42937e-16
DILUPBiCG:  Solving for p, Initial residual = 7.89497e-07, Final residual = 2.738e-22, No Iterations 1
max(U): (0.92626 0 0)
max/min p: 1/0.1
diagonal:  Solving for rho, Initial residual = 0, Final residual = 0, No Iterations 0
rho max/min : 0.999943 / 0.124993
time step continuity errors : sum local = 1.55132e-16, global = -9.37575e-18, cumulative = 2.33561e-16
max/min FaceAcCourant: 0.382561/0.171087
max/min Maf: 0.92797/0
max/min kappa: 1/0
ExecutionTime = 5.73 s  ClockTime = 6 s

Mean and max Characteristic Courant Numbers = 0.268752 0.382561
Courant Number max: 0.299469
deltaT = 0.000404138
Time = 0.246767

diagonal:  Solving for rho, Initial residual = 0, Final residual = 0, No Iterations 0
rho max/min : 0.999943 / 0.124993
PIMPLE: Iteration 1
DILUPBiCG:  Solving for h, Initial residual = 0.0011857, Final residual = 1.37708e-19, No Iterations 1
max/min T: 2.85321/1.77898
DILUPBiCG:  Solving for p, Initial residual = 0.000607144, Final residual = 4.02975e-19, No Iterations 1
max(U): (0.926261 0 0)
max/min p: 1/0.1
diagonal:  Solving for rho, Initial residual = 0, Final residual = 0, No Iterations 0
rho max/min : 0.999943 / 0.124993
time step continuity errors : sum local = 1.5069e-16, global = 2.52898e-18, cumulative = 2.33561e-16
max/min FaceAcCourant: 0.382561/0.171087
max/min Maf: 0.927969/0
max/min kappa: 1/0
PIMPLE: Iteration 2
DILUPBiCG:  Solving for h, Initial residual = 6.16268e-05, Final residual = 1.19569e-20, No Iterations 1
max/min T: 2.85321/1.77898
DILUPBiCG:  Solving for p, Initial residual = 1.91956e-05, Final residual = 1.46914e-20, No Iterations 1
max(U): (0.926261 0 0)
max/min p: 1/0.1
diagonal:  Solving for rho, Initial residual = 0, Final residual = 0, No Iterations 0
rho max/min : 0.999943 / 0.124993
time step continuity errors : sum local = 1.44707e-16, global = -5.85984e-18, cumulative = 2.33561e-16
DILUPBiCG:  Solving for p, Initial residual = 1.08177e-06, Final residual = 3.63406e-22, No Iterations 1
max(U): (0.926261 0 0)
max/min p: 1/0.1
diagonal:  Solving for rho, Initial residual = 0, Final residual = 0, No Iterations 0
rho max/min : 0.999943 / 0.124993
time step continuity errors : sum local = 1.61423e-16, global = -8.94397e-18, cumulative = 2.24617e-16
max/min FaceAcCourant: 0.382561/0.171087
max/min Maf: 0.92797/0
max/min kappa: 1/0
ExecutionTime = 5.74 s  ClockTime = 6 s

Mean and max Characteristic Courant Numbers = 0.268896 0.382561
Courant Number max: 0.299469
deltaT = 0.000404138
Time = 0.247171

diagonal:  Solving for rho, Initial residual = 0, Final residual = 0, No Iterations 0
rho max/min : 0.999943 / 0.124993
PIMPLE: Iteration 1
DILUPBiCG:  Solving for h, Initial residual = 0.00118535, Final residual = 2.60086e-19, No Iterations 1
max/min T: 2.85321/1.77898
DILUPBiCG:  Solving for p, Initial residual = 0.000607842, Final residual = 3.97697e-19, No Iterations 1
max(U): (0.926262 0 0)
max/min p: 1/0.1
diagonal:  Solving for rho, Initial residual = 0, Final residual = 0, No Iterations 0
rho max/min : 0.999943 / 0.124993
time step continuity errors : sum local = 1.5726e-16, global = 9.56079e-19, cumulative = 2.24617e-16
max/min FaceAcCourant: 0.382561/0.171087
max/min Maf: 0.927968/0
max/min kappa: 1/0
PIMPLE: Iteration 2
DILUPBiCG:  Solving for h, Initial residual = 6.25173e-05, Final residual = 2.99718e-20, No Iterations 1
max/min T: 2.85321/1.77898
DILUPBiCG:  Solving for p, Initial residual = 1.84668e-05, Final residual = 1.62473e-21, No Iterations 1
max(U): (0.926262 0 0)
max/min p: 1/0.1
diagonal:  Solving for rho, Initial residual = 0, Final residual = 0, No Iterations 0
rho max/min : 0.999943 / 0.124993
time step continuity errors : sum local = 1.55286e-16, global = -1.943e-18, cumulative = 2.24617e-16
DILUPBiCG:  Solving for p, Initial residual = 8.10625e-07, Final residual = 2.95458e-22, No Iterations 1
max(U): (0.926262 0 0)
max/min p: 1/0.1
diagonal:  Solving for rho, Initial residual = 0, Final residual = 0, No Iterations 0
rho max/min : 0.999943 / 0.124993
time step continuity errors : sum local = 1.58062e-16, global = 6.93929e-18, cumulative = 2.31556e-16
max/min FaceAcCourant: 0.382561/0.171087
max/min Maf: 0.927969/0
max/min kappa: 1/0
ExecutionTime = 5.75 s  ClockTime = 6 s

Mean and max Characteristic Courant Numbers = 0.269039 0.382561
Courant Number max: 0.299468
deltaT = 0.000404138
Time = 0.247575

diagonal:  Solving for rho, Initial residual = 0, Final residual = 0, No Iterations 0
rho max/min : 0.999943 / 0.124993
PIMPLE: Iteration 1
DILUPBiCG:  Solving for h, Initial residual = 0.00118501, Final residual = 4.06214e-19, No Iterations 1
max/min T: 2.8532/1.77898
DILUPBiCG:  Solving for p, Initial residual = 0.000608565, Final residual = 5.31349e-19, No Iterations 1
max(U): (0.926262 0 0)
max/min p: 1/0.1
diagonal:  Solving for rho, Initial residual = 0, Final residual = 0, No Iterations 0
rho max/min : 0.999943 / 0.124993
time step continuity errors : sum local = 1.48655e-16, global = 4.9346e-19, cumulative = 2.31556e-16
max/min FaceAcCourant: 0.382561/0.171087
max/min Maf: 0.927967/0
max/min kappa: 1/0
PIMPLE: Iteration 2
DILUPBiCG:  Solving for h, Initial residual = 6.07578e-05, Final residual = 1.43038e-20, No Iterations 1
max/min T: 2.8532/1.77898
DILUPBiCG:  Solving for p, Initial residual = 1.90496e-05, Final residual = 2.85834e-20, No Iterations 1
max(U): (0.926263 0 0)
max/min p: 1/0.1
diagonal:  Solving for rho, Initial residual = 0, Final residual = 0, No Iterations 0
rho max/min : 0.999943 / 0.124993
time step continuity errors : sum local = 1.52171e-16, global = 7.772e-18, cumulative = 2.31556e-16
DILUPBiCG:  Solving for p, Initial residual = 1.08142e-06, Final residual = 3.20059e-22, No Iterations 1
max(U): (0.926263 0 0)
max/min p: 1/0.1
diagonal:  Solving for rho, Initial residual = 0, Final residual = 0, No Iterations 0
rho max/min : 0.999943 / 0.124993
time step continuity errors : sum local = 1.45509e-16, global = 4.81124e-18, cumulative = 2.36368e-16
max/min FaceAcCourant: 0.382561/0.171087
max/min Maf: 0.927968/0
max/min kappa: 1/0
ExecutionTime = 5.76 s  ClockTime = 6 s

Mean and max Characteristic Courant Numbers = 0.269182 0.382561
Courant Number max: 0.299468
deltaT = 0.000404138
Time = 0.247979

diagonal:  Solving for rho, Initial residual = 0, Final residual = 0, No Iterations 0
rho max/min : 0.999943 / 0.124993
PIMPLE: Iteration 1
DILUPBiCG:  Solving for h, Initial residual = 0.00118469, Final residual = 1.09794e-19, No Iterations 1
max/min T: 2.8532/1.77898
DILUPBiCG:  Solving for p, Initial residual = 0.000609266, Final residual = 1.10701e-18, No Iterations 1
max(U): (0.926263 0 0)
max/min p: 1/0.1
diagonal:  Solving for rho, Initial residual = 0, Final residual = 0, No Iterations 0
rho max/min : 0.999943 / 0.124993
time step continuity errors : sum local = 1.52633e-16, global = -1.26449e-18, cumulative = 2.36368e-16
max/min FaceAcCourant: 0.382561/0.171087
max/min Maf: 0.927967/0
max/min kappa: 1/0
PIMPLE: Iteration 2
DILUPBiCG:  Solving for h, Initial residual = 6.25595e-05, Final residual = 2.5972e-20, No Iterations 1
max/min T: 2.8532/1.77898
DILUPBiCG:  Solving for p, Initial residual = 1.89658e-05, Final residual = 1.10093e-20, No Iterations 1
max(U): (0.926263 0 0)
max/min p: 1/0.1
diagonal:  Solving for rho, Initial residual = 0, Final residual = 0, No Iterations 0
rho max/min : 0.999943 / 0.124993
time step continuity errors : sum local = 1.56797e-16, global = -3.76264e-18, cumulative = 2.36368e-16
DILUPBiCG:  Solving for p, Initial residual = 9.19895e-07, Final residual = 1.81404e-22, No Iterations 1
max(U): (0.926263 0 0)
max/min p: 1/0.1
diagonal:  Solving for rho, Initial residual = 0, Final residual = 0, No Iterations 0
rho max/min : 0.999943 / 0.124993
time step continuity errors : sum local = 1.60467e-16, global = -3.17665e-18, cumulative = 2.33191e-16
max/min FaceAcCourant: 0.382561/0.171087
max/min Maf: 0.927967/0
max/min kappa: 1/0
ExecutionTime = 5.77 s  ClockTime = 6 s

Mean and max Characteristic Courant Numbers = 0.269326 0.382561
Courant Number max: 0.299468
deltaT = 0.000404138
Time = 0.248383

diagonal:  Solving for rho, Initial residual = 0, Final residual = 0, No Iterations 0
rho max/min : 0.999943 / 0.124993
PIMPLE: Iteration 1
DILUPBiCG:  Solving for h, Initial residual = 0.00118434, Final residual = 2.61617e-19, No Iterations 1
max/min T: 2.8532/1.77898
DILUPBiCG:  Solving for p, Initial residual = 0.000609981, Final residual = 9.71391e-19, No Iterations 1
max(U): (0.926263 0 0)
max/min p: 1/0.1
diagonal:  Solving for rho, Initial residual = 0, Final residual = 0, No Iterations 0
rho max/min : 0.999943 / 0.124993
time step continuity errors : sum local = 1.51184e-16, global = 1.01776e-17, cumulative = 2.33191e-16
max/min FaceAcCourant: 0.382561/0.171087
max/min Maf: 0.927967/0
max/min kappa: 1/0
PIMPLE: Iteration 2
DILUPBiCG:  Solving for h, Initial residual = 6.07022e-05, Final residual = 2.09287e-20, No Iterations 1
max/min T: 2.8532/1.77898
DILUPBiCG:  Solving for p, Initial residual = 1.86958e-05, Final residual = 1.72645e-20, No Iterations 1
max(U): (0.926263 0 0)
max/min p: 1/0.1
diagonal:  Solving for rho, Initial residual = 0, Final residual = 0, No Iterations 0
rho max/min : 0.999943 / 0.124993
time step continuity errors : sum local = 1.49796e-16, global = 6.38414e-18, cumulative = 2.33191e-16
DILUPBiCG:  Solving for p, Initial residual = 9.74494e-07, Final residual = 2.00332e-22, No Iterations 1
max(U): (0.926263 0 0)
max/min p: 1/0.1
diagonal:  Solving for rho, Initial residual = 0, Final residual = 0, No Iterations 0
rho max/min : 0.999943 / 0.124993
time step continuity errors : sum local = 1.50783e-16, global = 4.04021e-18, cumulative = 2.37231e-16
max/min FaceAcCourant: 0.382561/0.171087
max/min Maf: 0.927967/0
max/min kappa: 1/0
ExecutionTime = 5.78 s  ClockTime = 6 s

Mean and max Characteristic Courant Numbers = 0.269469 0.382561
Courant Number max: 0.299467
deltaT = 0.000404138
Time = 0.248788

diagonal:  Solving for rho, Initial residual = 0, Final residual = 0, No Iterations 0
rho max/min : 0.999943 / 0.124993
PIMPLE: Iteration 1
DILUPBiCG:  Solving for h, Initial residual = 0.00118396, Final residual = 1.17445e-19, No Iterations 1
max/min T: 2.8532/1.77898
DILUPBiCG:  Solving for p, Initial residual = 0.000610688, Final residual = 6.54221e-19, No Iterations 1
max(U): (0.926262 0 0)
max/min p: 1/0.1
diagonal:  Solving for rho, Initial residual = 0, Final residual = 0, No Iterations 0
rho max/min : 0.999943 / 0.124993
time step continuity errors : sum local = 1.44584e-16, global = 3.886e-18, cumulative = 2.37231e-16
max/min FaceAcCourant: 0.382561/0.171087
max/min Maf: 0.927966/0
max/min kappa: 1/0
PIMPLE: Iteration 2
DILUPBiCG:  Solving for h, Initial residual = 6.2268e-05, Final residual = 5.41999e-21, No Iterations 1
max/min T: 2.8532/1.77898
DILUPBiCG:  Solving for p, Initial residual = 1.9281e-05, Final residual = 8.77016e-21, No Iterations 1
max(U): (0.926263 0 0)
max/min p: 1/0.1
diagonal:  Solving for rho, Initial residual = 0, Final residual = 0, No Iterations 0
rho max/min : 0.999943 / 0.124993
time step continuity errors : sum local = 1.53559e-16, global = -1.81964e-18, cumulative = 2.37231e-16
DILUPBiCG:  Solving for p, Initial residual = 1.01888e-06, Final residual = 4.30614e-22, No Iterations 1
max(U): (0.926263 0 0)
max/min p: 1/0.1
diagonal:  Solving for rho, Initial residual = 0, Final residual = 0, No Iterations 0
rho max/min : 0.999943 / 0.124993
time step continuity errors : sum local = 1.47915e-16, global = -7.40191e-19, cumulative = 2.36491e-16
max/min FaceAcCourant: 0.382561/0.171087
max/min Maf: 0.927966/0
max/min kappa: 1/0
ExecutionTime = 5.79 s  ClockTime = 6 s

Mean and max Characteristic Courant Numbers = 0.269612 0.382561
Courant Number max: 0.299467
deltaT = 0.000404138
Time = 0.249192

diagonal:  Solving for rho, Initial residual = 0, Final residual = 0, No Iterations 0
rho max/min : 0.999943 / 0.124993
PIMPLE: Iteration 1
DILUPBiCG:  Solving for h, Initial residual = 0.00118361, Final residual = 2.59579e-19, No Iterations 1
max/min T: 2.8532/1.77898
DILUPBiCG:  Solving for p, Initial residual = 0.000611399, Final residual = 9.36686e-19, No Iterations 1
max(U): (0.926262 0 0)
max/min p: 1/0.1
diagonal:  Solving for rho, Initial residual = 0, Final residual = 0, No Iterations 0
rho max/min : 0.999943 / 0.124993
time step continuity errors : sum local = 1.57414e-16, global = -1.91216e-18, cumulative = 2.36491e-16
max/min FaceAcCourant: 0.382561/0.171087
max/min Maf: 0.927965/0
max/min kappa: 1/0
PIMPLE: Iteration 2
DILUPBiCG:  Solving for h, Initial residual = 6.16962e-05, Final residual = 9.34179e-21, No Iterations 1
max/min T: 2.8532/1.77898
DILUPBiCG:  Solving for p, Initial residual = 1.83069e-05, Final residual = 3.08244e-20, No Iterations 1
max(U): (0.926262 0 0)
max/min p: 1/0.1
diagonal:  Solving for rho, Initial residual = 0, Final residual = 0, No Iterations 0
rho max/min : 0.999943 / 0.124993
time step continuity errors : sum local = 1.63551e-16, global = -2.55983e-18, cumulative = 2.36491e-16
DILUPBiCG:  Solving for p, Initial residual = 8.56561e-07, Final residual = 3.44181e-22, No Iterations 1
max(U): (0.926262 0 0)
max/min p: 1/0.1
diagonal:  Solving for rho, Initial residual = 0, Final residual = 0, No Iterations 0
rho max/min : 0.999943 / 0.124993
time step continuity errors : sum local = 1.52171e-16, global = 1.0301e-17, cumulative = 2.46792e-16
max/min FaceAcCourant: 0.382561/0.171087
max/min Maf: 0.927965/0
max/min kappa: 1/0
ExecutionTime = 5.8 s  ClockTime = 6 s

Mean and max Characteristic Courant Numbers = 0.269756 0.382561
Courant Number max: 0.299467
deltaT = 0.000404138
Time = 0.249596

diagonal:  Solving for rho, Initial residual = 0, Final residual = 0, No Iterations 0
rho max/min : 0.999943 / 0.124993
PIMPLE: Iteration 1
DILUPBiCG:  Solving for h, Initial residual = 0.00118327, Final residual = 9.45409e-20, No Iterations 1
max/min T: 2.8532/1.77898
DILUPBiCG:  Solving for p, Initial residual = 0.000612119, Final residual = 6.62178e-19, No Iterations 1
max(U): (0.926262 0 0)
max/min p: 1/0.1
diagonal:  Solving for rho, Initial residual = 0, Final residual = 0, No Iterations 0
rho max/min : 0.999943 / 0.124993
time step continuity errors : sum local = 1.50721e-16, global = -5.70564e-18, cumulative = 2.46792e-16
max/min FaceAcCourant: 0.382561/0.171087
max/min Maf: 0.927964/0
max/min kappa: 1/0
PIMPLE: Iteration 2
DILUPBiCG:  Solving for h, Initial residual = 6.17484e-05, Final residual = 1.54764e-20, No Iterations 1
max/min T: 2.8532/1.77898
DILUPBiCG:  Solving for p, Initial residual = 1.93722e-05, Final residual = 1.25441e-20, No Iterations 1
max(U): (0.926262 0 0)
max/min p: 1/0.1
diagonal:  Solving for rho, Initial residual = 0, Final residual = 0, No Iterations 0
rho max/min : 0.999943 / 0.124993
time step continuity errors : sum local = 1.58586e-16, global = -9.99257e-18, cumulative = 2.46792e-16
DILUPBiCG:  Solving for p, Initial residual = 1.08238e-06, Final residual = 1.30797e-21, No Iterations 1
max(U): (0.926262 0 0)
max/min p: 1/0.1
diagonal:  Solving for rho, Initial residual = 0, Final residual = 0, No Iterations 0
rho max/min : 0.999943 / 0.124993
time step continuity errors : sum local = 1.61948e-16, global = 9.15986e-18, cumulative = 2.55952e-16
max/min FaceAcCourant: 0.382561/0.171087
max/min Maf: 0.927964/0
max/min kappa: 1/0
ExecutionTime = 5.8 s  ClockTime = 6 s

Mean and max Characteristic Courant Numbers = 0.269899 0.382561
Courant Number max: 0.299467
deltaT = 0.000404138
Time = 0.25

diagonal:  Solving for rho, Initial residual = 0, Final residual = 0, No Iterations 0
rho max/min : 0.999943 / 0.124993
PIMPLE: Iteration 1
DILUPBiCG:  Solving for h, Initial residual = 0.00118291, Final residual = 2.20496e-19, No Iterations 1
max/min T: 2.85319/1.77898
DILUPBiCG:  Solving for p, Initial residual = 0.000612831, Final residual = 4.0714e-19, No Iterations 1
max(U): (0.926261 0 0)
max/min p: 1/0.1
diagonal:  Solving for rho, Initial residual = 0, Final residual = 0, No Iterations 0
rho max/min : 0.999943 / 0.124993
time step continuity errors : sum local = 1.59819e-16, global = -8.94397e-18, cumulative = 2.55952e-16
max/min FaceAcCourant: 0.382561/0.171087
max/min Maf: 0.927963/0
max/min kappa: 1/0
PIMPLE: Iteration 2
DILUPBiCG:  Solving for h, Initial residual = 6.22227e-05, Final residual = 5.21208e-21, No Iterations 1
max/min T: 2.85319/1.77898
DILUPBiCG:  Solving for p, Initial residual = 1.83922e-05, Final residual = 1.50876e-20, No Iterations 1
max(U): (0.926261 0 0)
max/min p: 1/0.1
diagonal:  Solving for rho, Initial residual = 0, Final residual = 0, No Iterations 0
rho max/min : 0.999943 / 0.124993
time step continuity errors : sum local = 1.52448e-16, global = -5.27386e-18, cumulative = 2.55952e-16
DILUPBiCG:  Solving for p, Initial residual = 8.06492e-07, Final residual = 8.68642e-22, No Iterations 1
max(U): (0.926261 0 0)
max/min p: 1/0.1
diagonal:  Solving for rho, Initial residual = 0, Final residual = 0, No Iterations 0
rho max/min : 0.999943 / 0.124993
time step continuity errors : sum local = 1.52664e-16, global = -9.06733e-18, cumulative = 2.46884e-16
max/min FaceAcCourant: 0.382561/0.171087
max/min Maf: 0.927963/0
max/min kappa: 1/0
ExecutionTime = 5.83 s  ClockTime = 6 s

End

